
---------- Begin Simulation Statistics ----------
simSeconds                                   0.001859                       # Number of seconds simulated (Second)
simTicks                                   1858525000                       # Number of ticks simulated (Tick)
finalTick                                  1858525000                       # Number of ticks from beginning of simulation (restored from checkpoints and never reset) (Tick)
simFreq                                  1000000000000                       # The number of ticks per simulated second ((Tick/Second))
hostSeconds                                     17.49                       # Real time elapsed on the host (Second)
hostTickRate                                106251285                       # The number of ticks simulated per host second (ticks/s) ((Tick/Second))
hostMemory                                     681156                       # Number of bytes of host memory used (Byte)
simInsts                                      4680768                       # Number of instructions simulated (Count)
simOps                                        5736716                       # Number of ops (including micro ops) simulated (Count)
hostInstRate                                   267596                       # Simulator instruction rate (inst/s) ((Count/Second))
hostOpRate                                     327963                       # Simulator op (including micro ops) rate (op/s) ((Count/Second))
system.clk_domain.clock                          1000                       # Clock period in ticks (Tick)
system.cpu.numCycles                          3717051                       # Number of cpu cycles simulated (Cycle)
system.cpu.numWorkItemsStarted                      0                       # Number of work items this cpu started (Count)
system.cpu.numWorkItemsCompleted                    0                       # Number of work items this cpu completed (Count)
system.cpu.instsAdded                         6325139                       # Number of instructions added to the IQ (excludes non-spec) (Count)
system.cpu.nonSpecInstsAdded                      415                       # Number of non-speculative instructions added to the IQ (Count)
system.cpu.instsIssued                        6135363                       # Number of instructions issued (Count)
system.cpu.squashedInstsIssued                   2023                       # Number of squashed instructions issued (Count)
system.cpu.squashedInstsExamined               588837                       # Number of squashed instructions iterated over during squash; mainly for profiling (Count)
system.cpu.squashedOperandsExamined            469703                       # Number of squashed operands that are examined and possibly removed from graph (Count)
system.cpu.squashedNonSpecRemoved                 137                       # Number of squashed non-spec instructions that were removed (Count)
system.cpu.numIssuedDist::samples             3571482                       # Number of insts issued each cycle (Count)
system.cpu.numIssuedDist::mean               1.717876                       # Number of insts issued each cycle (Count)
system.cpu.numIssuedDist::stdev              2.500673                       # Number of insts issued each cycle (Count)
system.cpu.numIssuedDist::underflows                0      0.00%      0.00% # Number of insts issued each cycle (Count)
system.cpu.numIssuedDist::0                   2031876     56.89%     56.89% # Number of insts issued each cycle (Count)
system.cpu.numIssuedDist::1                    283715      7.94%     64.84% # Number of insts issued each cycle (Count)
system.cpu.numIssuedDist::2                    248181      6.95%     71.78% # Number of insts issued each cycle (Count)
system.cpu.numIssuedDist::3                    178734      5.00%     76.79% # Number of insts issued each cycle (Count)
system.cpu.numIssuedDist::4                    225884      6.32%     83.11% # Number of insts issued each cycle (Count)
system.cpu.numIssuedDist::5                    192475      5.39%     88.50% # Number of insts issued each cycle (Count)
system.cpu.numIssuedDist::6                    129735      3.63%     92.14% # Number of insts issued each cycle (Count)
system.cpu.numIssuedDist::7                     72293      2.02%     94.16% # Number of insts issued each cycle (Count)
system.cpu.numIssuedDist::8                    208589      5.84%    100.00% # Number of insts issued each cycle (Count)
system.cpu.numIssuedDist::overflows                 0      0.00%    100.00% # Number of insts issued each cycle (Count)
system.cpu.numIssuedDist::min_value                 0                       # Number of insts issued each cycle (Count)
system.cpu.numIssuedDist::max_value                 8                       # Number of insts issued each cycle (Count)
system.cpu.numIssuedDist::total               3571482                       # Number of insts issued each cycle (Count)
system.cpu.statFuBusy::No_OpClass                   0      0.00%      0.00% # attempts to use FU when none available (Count)
system.cpu.statFuBusy::IntAlu                   22960     15.54%     15.54% # attempts to use FU when none available (Count)
system.cpu.statFuBusy::IntMult                      0      0.00%     15.54% # attempts to use FU when none available (Count)
system.cpu.statFuBusy::IntDiv                    1211      0.82%     16.36% # attempts to use FU when none available (Count)
system.cpu.statFuBusy::FloatAdd                     0      0.00%     16.36% # attempts to use FU when none available (Count)
system.cpu.statFuBusy::FloatCmp                     0      0.00%     16.36% # attempts to use FU when none available (Count)
system.cpu.statFuBusy::FloatCvt                     0      0.00%     16.36% # attempts to use FU when none available (Count)
system.cpu.statFuBusy::FloatMult                    0      0.00%     16.36% # attempts to use FU when none available (Count)
system.cpu.statFuBusy::FloatMultAcc                 0      0.00%     16.36% # attempts to use FU when none available (Count)
system.cpu.statFuBusy::FloatDiv                     0      0.00%     16.36% # attempts to use FU when none available (Count)
system.cpu.statFuBusy::FloatMisc                    0      0.00%     16.36% # attempts to use FU when none available (Count)
system.cpu.statFuBusy::FloatSqrt                    0      0.00%     16.36% # attempts to use FU when none available (Count)
system.cpu.statFuBusy::SimdAdd                      0      0.00%     16.36% # attempts to use FU when none available (Count)
system.cpu.statFuBusy::SimdAddAcc                   0      0.00%     16.36% # attempts to use FU when none available (Count)
system.cpu.statFuBusy::SimdAlu                  34441     23.31%     39.66% # attempts to use FU when none available (Count)
system.cpu.statFuBusy::SimdCmp                     14      0.01%     39.67% # attempts to use FU when none available (Count)
system.cpu.statFuBusy::SimdCvt                      0      0.00%     39.67% # attempts to use FU when none available (Count)
system.cpu.statFuBusy::SimdMisc                     0      0.00%     39.67% # attempts to use FU when none available (Count)
system.cpu.statFuBusy::SimdMult                     0      0.00%     39.67% # attempts to use FU when none available (Count)
system.cpu.statFuBusy::SimdMultAcc                  0      0.00%     39.67% # attempts to use FU when none available (Count)
system.cpu.statFuBusy::SimdShift                    0      0.00%     39.67% # attempts to use FU when none available (Count)
system.cpu.statFuBusy::SimdShiftAcc                 0      0.00%     39.67% # attempts to use FU when none available (Count)
system.cpu.statFuBusy::SimdDiv                      0      0.00%     39.67% # attempts to use FU when none available (Count)
system.cpu.statFuBusy::SimdSqrt                     0      0.00%     39.67% # attempts to use FU when none available (Count)
system.cpu.statFuBusy::SimdFloatAdd                 0      0.00%     39.67% # attempts to use FU when none available (Count)
system.cpu.statFuBusy::SimdFloatAlu                 0      0.00%     39.67% # attempts to use FU when none available (Count)
system.cpu.statFuBusy::SimdFloatCmp                 0      0.00%     39.67% # attempts to use FU when none available (Count)
system.cpu.statFuBusy::SimdFloatCvt                 0      0.00%     39.67% # attempts to use FU when none available (Count)
system.cpu.statFuBusy::SimdFloatDiv                 0      0.00%     39.67% # attempts to use FU when none available (Count)
system.cpu.statFuBusy::SimdFloatMisc                0      0.00%     39.67% # attempts to use FU when none available (Count)
system.cpu.statFuBusy::SimdFloatMult                0      0.00%     39.67% # attempts to use FU when none available (Count)
system.cpu.statFuBusy::SimdFloatMultAcc             0      0.00%     39.67% # attempts to use FU when none available (Count)
system.cpu.statFuBusy::SimdFloatSqrt                0      0.00%     39.67% # attempts to use FU when none available (Count)
system.cpu.statFuBusy::SimdReduceAdd                0      0.00%     39.67% # attempts to use FU when none available (Count)
system.cpu.statFuBusy::SimdReduceAlu                0      0.00%     39.67% # attempts to use FU when none available (Count)
system.cpu.statFuBusy::SimdReduceCmp                0      0.00%     39.67% # attempts to use FU when none available (Count)
system.cpu.statFuBusy::SimdFloatReduceAdd            0      0.00%     39.67% # attempts to use FU when none available (Count)
system.cpu.statFuBusy::SimdFloatReduceCmp            0      0.00%     39.67% # attempts to use FU when none available (Count)
system.cpu.statFuBusy::SimdAes                      0      0.00%     39.67% # attempts to use FU when none available (Count)
system.cpu.statFuBusy::SimdAesMix                   0      0.00%     39.67% # attempts to use FU when none available (Count)
system.cpu.statFuBusy::SimdSha1Hash                 0      0.00%     39.67% # attempts to use FU when none available (Count)
system.cpu.statFuBusy::SimdSha1Hash2                0      0.00%     39.67% # attempts to use FU when none available (Count)
system.cpu.statFuBusy::SimdSha256Hash               0      0.00%     39.67% # attempts to use FU when none available (Count)
system.cpu.statFuBusy::SimdSha256Hash2              0      0.00%     39.67% # attempts to use FU when none available (Count)
system.cpu.statFuBusy::SimdShaSigma2                0      0.00%     39.67% # attempts to use FU when none available (Count)
system.cpu.statFuBusy::SimdShaSigma3                0      0.00%     39.67% # attempts to use FU when none available (Count)
system.cpu.statFuBusy::SimdPredAlu                  0      0.00%     39.67% # attempts to use FU when none available (Count)
system.cpu.statFuBusy::MemRead                  74099     50.14%     89.81% # attempts to use FU when none available (Count)
system.cpu.statFuBusy::MemWrite                 15058     10.19%    100.00% # attempts to use FU when none available (Count)
system.cpu.statFuBusy::FloatMemRead                 0      0.00%    100.00% # attempts to use FU when none available (Count)
system.cpu.statFuBusy::FloatMemWrite                0      0.00%    100.00% # attempts to use FU when none available (Count)
system.cpu.statFuBusy::IprAccess                    0      0.00%    100.00% # attempts to use FU when none available (Count)
system.cpu.statFuBusy::InstPrefetch                 0      0.00%    100.00% # attempts to use FU when none available (Count)
system.cpu.statIssuedInstType_0::No_OpClass       315627      5.14%      5.14% # Number of instructions issued per FU type, per thread (Count)
system.cpu.statIssuedInstType_0::IntAlu       3148081     51.31%     56.45% # Number of instructions issued per FU type, per thread (Count)
system.cpu.statIssuedInstType_0::IntMult         7676      0.13%     56.58% # Number of instructions issued per FU type, per thread (Count)
system.cpu.statIssuedInstType_0::IntDiv          2726      0.04%     56.62% # Number of instructions issued per FU type, per thread (Count)
system.cpu.statIssuedInstType_0::FloatAdd            0      0.00%     56.62% # Number of instructions issued per FU type, per thread (Count)
system.cpu.statIssuedInstType_0::FloatCmp            0      0.00%     56.62% # Number of instructions issued per FU type, per thread (Count)
system.cpu.statIssuedInstType_0::FloatCvt            1      0.00%     56.62% # Number of instructions issued per FU type, per thread (Count)
system.cpu.statIssuedInstType_0::FloatMult            1      0.00%     56.62% # Number of instructions issued per FU type, per thread (Count)
system.cpu.statIssuedInstType_0::FloatMultAcc            0      0.00%     56.62% # Number of instructions issued per FU type, per thread (Count)
system.cpu.statIssuedInstType_0::FloatDiv            1      0.00%     56.62% # Number of instructions issued per FU type, per thread (Count)
system.cpu.statIssuedInstType_0::FloatMisc            4      0.00%     56.62% # Number of instructions issued per FU type, per thread (Count)
system.cpu.statIssuedInstType_0::FloatSqrt            0      0.00%     56.62% # Number of instructions issued per FU type, per thread (Count)
system.cpu.statIssuedInstType_0::SimdAdd       313758      5.11%     61.74% # Number of instructions issued per FU type, per thread (Count)
system.cpu.statIssuedInstType_0::SimdAddAcc            0      0.00%     61.74% # Number of instructions issued per FU type, per thread (Count)
system.cpu.statIssuedInstType_0::SimdAlu       627533     10.23%     71.97% # Number of instructions issued per FU type, per thread (Count)
system.cpu.statIssuedInstType_0::SimdCmp          121      0.00%     71.97% # Number of instructions issued per FU type, per thread (Count)
system.cpu.statIssuedInstType_0::SimdCvt            0      0.00%     71.97% # Number of instructions issued per FU type, per thread (Count)
system.cpu.statIssuedInstType_0::SimdMisc       313790      5.11%     77.08% # Number of instructions issued per FU type, per thread (Count)
system.cpu.statIssuedInstType_0::SimdMult            0      0.00%     77.08% # Number of instructions issued per FU type, per thread (Count)
system.cpu.statIssuedInstType_0::SimdMultAcc            0      0.00%     77.08% # Number of instructions issued per FU type, per thread (Count)
system.cpu.statIssuedInstType_0::SimdShift            0      0.00%     77.08% # Number of instructions issued per FU type, per thread (Count)
system.cpu.statIssuedInstType_0::SimdShiftAcc            0      0.00%     77.08% # Number of instructions issued per FU type, per thread (Count)
system.cpu.statIssuedInstType_0::SimdDiv            0      0.00%     77.08% # Number of instructions issued per FU type, per thread (Count)
system.cpu.statIssuedInstType_0::SimdSqrt            0      0.00%     77.08% # Number of instructions issued per FU type, per thread (Count)
system.cpu.statIssuedInstType_0::SimdFloatAdd            0      0.00%     77.08% # Number of instructions issued per FU type, per thread (Count)
system.cpu.statIssuedInstType_0::SimdFloatAlu            0      0.00%     77.08% # Number of instructions issued per FU type, per thread (Count)
system.cpu.statIssuedInstType_0::SimdFloatCmp            0      0.00%     77.08% # Number of instructions issued per FU type, per thread (Count)
system.cpu.statIssuedInstType_0::SimdFloatCvt            0      0.00%     77.08% # Number of instructions issued per FU type, per thread (Count)
system.cpu.statIssuedInstType_0::SimdFloatDiv            0      0.00%     77.08% # Number of instructions issued per FU type, per thread (Count)
system.cpu.statIssuedInstType_0::SimdFloatMisc            0      0.00%     77.08% # Number of instructions issued per FU type, per thread (Count)
system.cpu.statIssuedInstType_0::SimdFloatMult            0      0.00%     77.08% # Number of instructions issued per FU type, per thread (Count)
system.cpu.statIssuedInstType_0::SimdFloatMultAcc            0      0.00%     77.08% # Number of instructions issued per FU type, per thread (Count)
system.cpu.statIssuedInstType_0::SimdFloatSqrt            0      0.00%     77.08% # Number of instructions issued per FU type, per thread (Count)
system.cpu.statIssuedInstType_0::SimdReduceAdd            0      0.00%     77.08% # Number of instructions issued per FU type, per thread (Count)
system.cpu.statIssuedInstType_0::SimdReduceAlu            0      0.00%     77.08% # Number of instructions issued per FU type, per thread (Count)
system.cpu.statIssuedInstType_0::SimdReduceCmp            0      0.00%     77.08% # Number of instructions issued per FU type, per thread (Count)
system.cpu.statIssuedInstType_0::SimdFloatReduceAdd            0      0.00%     77.08% # Number of instructions issued per FU type, per thread (Count)
system.cpu.statIssuedInstType_0::SimdFloatReduceCmp            0      0.00%     77.08% # Number of instructions issued per FU type, per thread (Count)
system.cpu.statIssuedInstType_0::SimdAes            0      0.00%     77.08% # Number of instructions issued per FU type, per thread (Count)
system.cpu.statIssuedInstType_0::SimdAesMix            0      0.00%     77.08% # Number of instructions issued per FU type, per thread (Count)
system.cpu.statIssuedInstType_0::SimdSha1Hash            0      0.00%     77.08% # Number of instructions issued per FU type, per thread (Count)
system.cpu.statIssuedInstType_0::SimdSha1Hash2            0      0.00%     77.08% # Number of instructions issued per FU type, per thread (Count)
system.cpu.statIssuedInstType_0::SimdSha256Hash            0      0.00%     77.08% # Number of instructions issued per FU type, per thread (Count)
system.cpu.statIssuedInstType_0::SimdSha256Hash2            0      0.00%     77.08% # Number of instructions issued per FU type, per thread (Count)
system.cpu.statIssuedInstType_0::SimdShaSigma2            0      0.00%     77.08% # Number of instructions issued per FU type, per thread (Count)
system.cpu.statIssuedInstType_0::SimdShaSigma3            0      0.00%     77.08% # Number of instructions issued per FU type, per thread (Count)
system.cpu.statIssuedInstType_0::SimdPredAlu            0      0.00%     77.08% # Number of instructions issued per FU type, per thread (Count)
system.cpu.statIssuedInstType_0::MemRead      1182025     19.27%     96.35% # Number of instructions issued per FU type, per thread (Count)
system.cpu.statIssuedInstType_0::MemWrite       224019      3.65%    100.00% # Number of instructions issued per FU type, per thread (Count)
system.cpu.statIssuedInstType_0::FloatMemRead            0      0.00%    100.00% # Number of instructions issued per FU type, per thread (Count)
system.cpu.statIssuedInstType_0::FloatMemWrite            0      0.00%    100.00% # Number of instructions issued per FU type, per thread (Count)
system.cpu.statIssuedInstType_0::IprAccess            0      0.00%    100.00% # Number of instructions issued per FU type, per thread (Count)
system.cpu.statIssuedInstType_0::InstPrefetch            0      0.00%    100.00% # Number of instructions issued per FU type, per thread (Count)
system.cpu.statIssuedInstType_0::total        6135363                       # Number of instructions issued per FU type, per thread (Count)
system.cpu.issueRate                         1.650600                       # Inst issue rate ((Count/Cycle))
system.cpu.fuBusy                              147783                       # FU busy when requested (Count)
system.cpu.fuBusyRate                        0.024087                       # FU busy rate (busy events/executed inst) ((Count/Count))
system.cpu.intInstQueueReads                 11497331                       # Number of integer instruction queue reads (Count)
system.cpu.intInstQueueWrites                 4684063                       # Number of integer instruction queue writes (Count)
system.cpu.intInstQueueWakeupAccesses         3837543                       # Number of integer instruction queue wakeup accesses (Count)
system.cpu.fpInstQueueReads                         0                       # Number of floating instruction queue reads (Count)
system.cpu.fpInstQueueWrites                        0                       # Number of floating instruction queue writes (Count)
system.cpu.fpInstQueueWakeupAccesses                0                       # Number of floating instruction queue wakeup accesses (Count)
system.cpu.vecInstQueueReads                  4494683                       # Number of vector instruction queue reads (Count)
system.cpu.vecInstQueueWrites                 2230396                       # Number of vector instruction queue writes (Count)
system.cpu.vecInstQueueWakeupAccesses         2202339                       # Number of vector instruction queue wakeup accesses (Count)
system.cpu.intAluAccesses                     3992076                       # Number of integer alu accesses (Count)
system.cpu.fpAluAccesses                            0                       # Number of floating point alu accesses (Count)
system.cpu.vecAluAccesses                     1975443                       # Number of vector alu accesses (Count)
system.cpu.numInsts                           6111192                       # Number of executed instructions (Count)
system.cpu.numLoadInsts                       1170280                       # Number of load instructions executed (Count)
system.cpu.numSquashedInsts                     24171                       # Number of squashed instructions skipped in execute (Count)
system.cpu.numSwp                                   0                       # Number of swp insts executed (Count)
system.cpu.numNop                               20501                       # Number of nop insts executed (Count)
system.cpu.numRefs                            1392717                       # Number of memory reference insts executed (Count)
system.cpu.numBranches                         613775                       # Number of branches executed (Count)
system.cpu.numStoreInsts                       222437                       # Number of stores executed (Count)
system.cpu.numRate                           1.644097                       # Inst execution rate ((Count/Cycle))
system.cpu.timesIdled                            1537                       # Number of times that the entire CPU went into an idle state and unscheduled itself (Count)
system.cpu.idleCycles                          145569                       # Total number of cycles that the CPU has spent unscheduled due to idling (Cycle)
system.cpu.committedInsts                     4680768                       # Number of Instructions Simulated (Count)
system.cpu.committedOps                       5736716                       # Number of Ops (including micro ops) Simulated (Count)
system.cpu.cpi                               0.794111                       # CPI: Cycles Per Instruction ((Cycle/Count))
system.cpu.totalCpi                          0.794111                       # CPI: Total CPI of All Threads ((Cycle/Count))
system.cpu.ipc                               1.259269                       # IPC: Instructions Per Cycle ((Count/Cycle))
system.cpu.totalIpc                          1.259269                       # IPC: Total IPC of All Threads ((Count/Cycle))
system.cpu.intRegfileReads                    5623545                       # Number of integer regfile reads (Count)
system.cpu.intRegfileWrites                   2946250                       # Number of integer regfile writes (Count)
system.cpu.vecRegfileReads                    5345514                       # number of vector regfile reads (Count)
system.cpu.ccRegfileReads                     1382685                       # number of cc regfile reads (Count)
system.cpu.ccRegfileWrites                    1377600                       # number of cc regfile writes (Count)
system.cpu.miscRegfileReads                   4089683                       # number of misc regfile reads (Count)
system.cpu.miscRegfileWrites                      220                       # number of misc regfile writes (Count)
system.cpu.MemDepUnit__0.insertedLoads        1164658                       # Number of loads inserted to the mem dependence unit. (Count)
system.cpu.MemDepUnit__0.insertedStores        229936                       # Number of stores inserted to the mem dependence unit. (Count)
system.cpu.MemDepUnit__0.conflictingLoads         9204                       # Number of conflicting loads. (Count)
system.cpu.MemDepUnit__0.conflictingStores        13541                       # Number of conflicting stores. (Count)
system.cpu.MemDepUnit__1.insertedLoads              0                       # Number of loads inserted to the mem dependence unit. (Count)
system.cpu.MemDepUnit__1.insertedStores             0                       # Number of stores inserted to the mem dependence unit. (Count)
system.cpu.MemDepUnit__1.conflictingLoads            0                       # Number of conflicting loads. (Count)
system.cpu.MemDepUnit__1.conflictingStores            0                       # Number of conflicting stores. (Count)
system.cpu.MemDepUnit__2.insertedLoads              0                       # Number of loads inserted to the mem dependence unit. (Count)
system.cpu.MemDepUnit__2.insertedStores             0                       # Number of stores inserted to the mem dependence unit. (Count)
system.cpu.MemDepUnit__2.conflictingLoads            0                       # Number of conflicting loads. (Count)
system.cpu.MemDepUnit__2.conflictingStores            0                       # Number of conflicting stores. (Count)
system.cpu.MemDepUnit__3.insertedLoads              0                       # Number of loads inserted to the mem dependence unit. (Count)
system.cpu.MemDepUnit__3.insertedStores             0                       # Number of stores inserted to the mem dependence unit. (Count)
system.cpu.MemDepUnit__3.conflictingLoads            0                       # Number of conflicting loads. (Count)
system.cpu.MemDepUnit__3.conflictingStores            0                       # Number of conflicting stores. (Count)
system.cpu.branchPred.lookups                  737760                       # Number of BP lookups (Count)
system.cpu.branchPred.condPredicted            662457                       # Number of conditional branches predicted (Count)
system.cpu.branchPred.condIncorrect             15721                       # Number of conditional branches incorrect (Count)
system.cpu.branchPred.BTBLookups               355657                       # Number of BTB lookups (Count)
system.cpu.branchPred.BTBUpdates                 8006                       # Number of BTB updates (Count)
system.cpu.branchPred.BTBHits                  352687                       # Number of BTB hits (Count)
system.cpu.branchPred.BTBHitRatio            0.991649                       # BTB Hit Ratio (Ratio)
system.cpu.branchPred.RASUsed                   17757                       # Number of times the RAS was used to get a target. (Count)
system.cpu.branchPred.RASIncorrect                 45                       # Number of incorrect RAS predictions. (Count)
system.cpu.branchPred.indirectLookups            6775                       # Number of indirect predictor lookups. (Count)
system.cpu.branchPred.indirectHits               1389                       # Number of indirect target hits. (Count)
system.cpu.branchPred.indirectMisses             5386                       # Number of indirect misses. (Count)
system.cpu.branchPred.indirectMispredicted          693                       # Number of mispredicted indirect branches. (Count)
system.cpu.commit.commitSquashedInsts          581735                       # The number of squashed insts skipped by commit (Count)
system.cpu.commit.commitNonSpecStalls             278                       # The number of times commit has been forced to stall to communicate backwards (Count)
system.cpu.commit.branchMispredicts             15767                       # The number of times a branch was mispredicted (Count)
system.cpu.commit.numCommittedDist::samples      3480862                       # Number of insts commited each cycle (Count)
system.cpu.commit.numCommittedDist::mean     1.653756                       # Number of insts commited each cycle (Count)
system.cpu.commit.numCommittedDist::stdev     2.903671                       # Number of insts commited each cycle (Count)
system.cpu.commit.numCommittedDist::underflows            0      0.00%      0.00% # Number of insts commited each cycle (Count)
system.cpu.commit.numCommittedDist::0         2252755     64.72%     64.72% # Number of insts commited each cycle (Count)
system.cpu.commit.numCommittedDist::1          404913     11.63%     76.35% # Number of insts commited each cycle (Count)
system.cpu.commit.numCommittedDist::2           51881      1.49%     77.84% # Number of insts commited each cycle (Count)
system.cpu.commit.numCommittedDist::3           29400      0.84%     78.69% # Number of insts commited each cycle (Count)
system.cpu.commit.numCommittedDist::4          167232      4.80%     83.49% # Number of insts commited each cycle (Count)
system.cpu.commit.numCommittedDist::5           18110      0.52%     84.01% # Number of insts commited each cycle (Count)
system.cpu.commit.numCommittedDist::6           14191      0.41%     84.42% # Number of insts commited each cycle (Count)
system.cpu.commit.numCommittedDist::7           24043      0.69%     85.11% # Number of insts commited each cycle (Count)
system.cpu.commit.numCommittedDist::8          518337     14.89%    100.00% # Number of insts commited each cycle (Count)
system.cpu.commit.numCommittedDist::overflows            0      0.00%    100.00% # Number of insts commited each cycle (Count)
system.cpu.commit.numCommittedDist::min_value            0                       # Number of insts commited each cycle (Count)
system.cpu.commit.numCommittedDist::max_value            8                       # Number of insts commited each cycle (Count)
system.cpu.commit.numCommittedDist::total      3480862                       # Number of insts commited each cycle (Count)
system.cpu.commit.instsCommitted              4700548                       # Number of instructions committed (Count)
system.cpu.commit.opsCommitted                5756496                       # Number of ops (including micro ops) committed (Count)
system.cpu.commit.memRefs                     1243907                       # Number of memory references committed (Count)
system.cpu.commit.loads                       1051437                       # Number of loads committed (Count)
system.cpu.commit.amos                            108                       # Number of atomic instructions committed (Count)
system.cpu.commit.membars                         116                       # Number of memory barriers committed (Count)
system.cpu.commit.branches                     562828                       # Number of branches committed (Count)
system.cpu.commit.vectorInstructions          2198348                       # Number of committed Vector instructions. (Count)
system.cpu.commit.floating                          0                       # Number of committed floating point instructions. (Count)
system.cpu.commit.integer                     4135728                       # Number of committed integer instructions. (Count)
system.cpu.commit.functionCalls                 11056                       # Number of function calls committed. (Count)
system.cpu.commit.committedInstType_0::No_OpClass       313731      5.45%      5.45% # Class of committed instruction (Count)
system.cpu.commit.committedInstType_0::IntAlu      2934368     50.97%     56.42% # Class of committed instruction (Count)
system.cpu.commit.committedInstType_0::IntMult         7091      0.12%     56.55% # Class of committed instruction (Count)
system.cpu.commit.committedInstType_0::IntDiv         2574      0.04%     56.59% # Class of committed instruction (Count)
system.cpu.commit.committedInstType_0::FloatAdd            0      0.00%     56.59% # Class of committed instruction (Count)
system.cpu.commit.committedInstType_0::FloatCmp            0      0.00%     56.59% # Class of committed instruction (Count)
system.cpu.commit.committedInstType_0::FloatCvt            1      0.00%     56.59% # Class of committed instruction (Count)
system.cpu.commit.committedInstType_0::FloatMult            1      0.00%     56.59% # Class of committed instruction (Count)
system.cpu.commit.committedInstType_0::FloatMultAcc            0      0.00%     56.59% # Class of committed instruction (Count)
system.cpu.commit.committedInstType_0::FloatDiv            1      0.00%     56.59% # Class of committed instruction (Count)
system.cpu.commit.committedInstType_0::FloatMisc            4      0.00%     56.59% # Class of committed instruction (Count)
system.cpu.commit.committedInstType_0::FloatSqrt            0      0.00%     56.59% # Class of committed instruction (Count)
system.cpu.commit.committedInstType_0::SimdAdd       313675      5.45%     62.04% # Class of committed instruction (Count)
system.cpu.commit.committedInstType_0::SimdAddAcc            0      0.00%     62.04% # Class of committed instruction (Count)
system.cpu.commit.committedInstType_0::SimdAlu       627351     10.90%     72.94% # Class of committed instruction (Count)
system.cpu.commit.committedInstType_0::SimdCmp           93      0.00%     72.94% # Class of committed instruction (Count)
system.cpu.commit.committedInstType_0::SimdCvt            0      0.00%     72.94% # Class of committed instruction (Count)
system.cpu.commit.committedInstType_0::SimdMisc       313699      5.45%     78.39% # Class of committed instruction (Count)
system.cpu.commit.committedInstType_0::SimdMult            0      0.00%     78.39% # Class of committed instruction (Count)
system.cpu.commit.committedInstType_0::SimdMultAcc            0      0.00%     78.39% # Class of committed instruction (Count)
system.cpu.commit.committedInstType_0::SimdShift            0      0.00%     78.39% # Class of committed instruction (Count)
system.cpu.commit.committedInstType_0::SimdShiftAcc            0      0.00%     78.39% # Class of committed instruction (Count)
system.cpu.commit.committedInstType_0::SimdDiv            0      0.00%     78.39% # Class of committed instruction (Count)
system.cpu.commit.committedInstType_0::SimdSqrt            0      0.00%     78.39% # Class of committed instruction (Count)
system.cpu.commit.committedInstType_0::SimdFloatAdd            0      0.00%     78.39% # Class of committed instruction (Count)
system.cpu.commit.committedInstType_0::SimdFloatAlu            0      0.00%     78.39% # Class of committed instruction (Count)
system.cpu.commit.committedInstType_0::SimdFloatCmp            0      0.00%     78.39% # Class of committed instruction (Count)
system.cpu.commit.committedInstType_0::SimdFloatCvt            0      0.00%     78.39% # Class of committed instruction (Count)
system.cpu.commit.committedInstType_0::SimdFloatDiv            0      0.00%     78.39% # Class of committed instruction (Count)
system.cpu.commit.committedInstType_0::SimdFloatMisc            0      0.00%     78.39% # Class of committed instruction (Count)
system.cpu.commit.committedInstType_0::SimdFloatMult            0      0.00%     78.39% # Class of committed instruction (Count)
system.cpu.commit.committedInstType_0::SimdFloatMultAcc            0      0.00%     78.39% # Class of committed instruction (Count)
system.cpu.commit.committedInstType_0::SimdFloatSqrt            0      0.00%     78.39% # Class of committed instruction (Count)
system.cpu.commit.committedInstType_0::SimdReduceAdd            0      0.00%     78.39% # Class of committed instruction (Count)
system.cpu.commit.committedInstType_0::SimdReduceAlu            0      0.00%     78.39% # Class of committed instruction (Count)
system.cpu.commit.committedInstType_0::SimdReduceCmp            0      0.00%     78.39% # Class of committed instruction (Count)
system.cpu.commit.committedInstType_0::SimdFloatReduceAdd            0      0.00%     78.39% # Class of committed instruction (Count)
system.cpu.commit.committedInstType_0::SimdFloatReduceCmp            0      0.00%     78.39% # Class of committed instruction (Count)
system.cpu.commit.committedInstType_0::SimdAes            0      0.00%     78.39% # Class of committed instruction (Count)
system.cpu.commit.committedInstType_0::SimdAesMix            0      0.00%     78.39% # Class of committed instruction (Count)
system.cpu.commit.committedInstType_0::SimdSha1Hash            0      0.00%     78.39% # Class of committed instruction (Count)
system.cpu.commit.committedInstType_0::SimdSha1Hash2            0      0.00%     78.39% # Class of committed instruction (Count)
system.cpu.commit.committedInstType_0::SimdSha256Hash            0      0.00%     78.39% # Class of committed instruction (Count)
system.cpu.commit.committedInstType_0::SimdSha256Hash2            0      0.00%     78.39% # Class of committed instruction (Count)
system.cpu.commit.committedInstType_0::SimdShaSigma2            0      0.00%     78.39% # Class of committed instruction (Count)
system.cpu.commit.committedInstType_0::SimdShaSigma3            0      0.00%     78.39% # Class of committed instruction (Count)
system.cpu.commit.committedInstType_0::SimdPredAlu            0      0.00%     78.39% # Class of committed instruction (Count)
system.cpu.commit.committedInstType_0::MemRead      1051437     18.27%     96.66% # Class of committed instruction (Count)
system.cpu.commit.committedInstType_0::MemWrite       192470      3.34%    100.00% # Class of committed instruction (Count)
system.cpu.commit.committedInstType_0::FloatMemRead            0      0.00%    100.00% # Class of committed instruction (Count)
system.cpu.commit.committedInstType_0::FloatMemWrite            0      0.00%    100.00% # Class of committed instruction (Count)
system.cpu.commit.committedInstType_0::IprAccess            0      0.00%    100.00% # Class of committed instruction (Count)
system.cpu.commit.committedInstType_0::InstPrefetch            0      0.00%    100.00% # Class of committed instruction (Count)
system.cpu.commit.committedInstType_0::total      5756496                       # Class of committed instruction (Count)
system.cpu.commit.commitEligibleSamples        518337                       # number cycles where commit BW limit reached (Cycle)
system.cpu.dcache.demandHits::cpu.data        1236427                       # number of demand (read+write) hits (Count)
system.cpu.dcache.demandHits::total           1236427                       # number of demand (read+write) hits (Count)
system.cpu.dcache.overallHits::cpu.data       1236427                       # number of overall hits (Count)
system.cpu.dcache.overallHits::total          1236427                       # number of overall hits (Count)
system.cpu.dcache.demandMisses::cpu.data        98435                       # number of demand (read+write) misses (Count)
system.cpu.dcache.demandMisses::total           98435                       # number of demand (read+write) misses (Count)
system.cpu.dcache.overallMisses::cpu.data        98435                       # number of overall misses (Count)
system.cpu.dcache.overallMisses::total          98435                       # number of overall misses (Count)
system.cpu.dcache.demandMissLatency::cpu.data   6865602483                       # number of demand (read+write) miss ticks (Tick)
system.cpu.dcache.demandMissLatency::total   6865602483                       # number of demand (read+write) miss ticks (Tick)
system.cpu.dcache.overallMissLatency::cpu.data   6865602483                       # number of overall miss ticks (Tick)
system.cpu.dcache.overallMissLatency::total   6865602483                       # number of overall miss ticks (Tick)
system.cpu.dcache.demandAccesses::cpu.data      1334862                       # number of demand (read+write) accesses (Count)
system.cpu.dcache.demandAccesses::total       1334862                       # number of demand (read+write) accesses (Count)
system.cpu.dcache.overallAccesses::cpu.data      1334862                       # number of overall (read+write) accesses (Count)
system.cpu.dcache.overallAccesses::total      1334862                       # number of overall (read+write) accesses (Count)
system.cpu.dcache.demandMissRate::cpu.data     0.073742                       # miss rate for demand accesses (Ratio)
system.cpu.dcache.demandMissRate::total      0.073742                       # miss rate for demand accesses (Ratio)
system.cpu.dcache.overallMissRate::cpu.data     0.073742                       # miss rate for overall accesses (Ratio)
system.cpu.dcache.overallMissRate::total     0.073742                       # miss rate for overall accesses (Ratio)
system.cpu.dcache.demandAvgMissLatency::cpu.data 69747.574369                       # average overall miss latency in ticks ((Tick/Count))
system.cpu.dcache.demandAvgMissLatency::total 69747.574369                       # average overall miss latency in ticks ((Tick/Count))
system.cpu.dcache.overallAvgMissLatency::cpu.data 69747.574369                       # average overall miss latency ((Tick/Count))
system.cpu.dcache.overallAvgMissLatency::total 69747.574369                       # average overall miss latency ((Tick/Count))
system.cpu.dcache.blockedCycles::no_mshrs        96808                       # number of cycles access was blocked (Cycle)
system.cpu.dcache.blockedCycles::no_targets          527                       # number of cycles access was blocked (Cycle)
system.cpu.dcache.blockedCauses::no_mshrs         2101                       # number of times access was blocked (Count)
system.cpu.dcache.blockedCauses::no_targets            9                       # number of times access was blocked (Count)
system.cpu.dcache.avgBlocked::no_mshrs      46.077106                       # average number of cycles each access was blocked ((Cycle/Count))
system.cpu.dcache.avgBlocked::no_targets    58.555556                       # average number of cycles each access was blocked ((Cycle/Count))
system.cpu.dcache.writebacks::writebacks         3386                       # number of writebacks (Count)
system.cpu.dcache.writebacks::total              3386                       # number of writebacks (Count)
system.cpu.dcache.demandMshrHits::cpu.data        69292                       # number of demand (read+write) MSHR hits (Count)
system.cpu.dcache.demandMshrHits::total         69292                       # number of demand (read+write) MSHR hits (Count)
system.cpu.dcache.overallMshrHits::cpu.data        69292                       # number of overall MSHR hits (Count)
system.cpu.dcache.overallMshrHits::total        69292                       # number of overall MSHR hits (Count)
system.cpu.dcache.demandMshrMisses::cpu.data        29143                       # number of demand (read+write) MSHR misses (Count)
system.cpu.dcache.demandMshrMisses::total        29143                       # number of demand (read+write) MSHR misses (Count)
system.cpu.dcache.overallMshrMisses::cpu.data        29143                       # number of overall MSHR misses (Count)
system.cpu.dcache.overallMshrMisses::total        29143                       # number of overall MSHR misses (Count)
system.cpu.dcache.demandMshrMissLatency::cpu.data   2066526197                       # number of demand (read+write) MSHR miss ticks (Tick)
system.cpu.dcache.demandMshrMissLatency::total   2066526197                       # number of demand (read+write) MSHR miss ticks (Tick)
system.cpu.dcache.overallMshrMissLatency::cpu.data   2066526197                       # number of overall MSHR miss ticks (Tick)
system.cpu.dcache.overallMshrMissLatency::total   2066526197                       # number of overall MSHR miss ticks (Tick)
system.cpu.dcache.demandMshrMissRate::cpu.data     0.021832                       # mshr miss ratio for demand accesses (Ratio)
system.cpu.dcache.demandMshrMissRate::total     0.021832                       # mshr miss ratio for demand accesses (Ratio)
system.cpu.dcache.overallMshrMissRate::cpu.data     0.021832                       # mshr miss ratio for overall accesses (Ratio)
system.cpu.dcache.overallMshrMissRate::total     0.021832                       # mshr miss ratio for overall accesses (Ratio)
system.cpu.dcache.demandAvgMshrMissLatency::cpu.data 70909.865045                       # average overall mshr miss latency ((Tick/Count))
system.cpu.dcache.demandAvgMshrMissLatency::total 70909.865045                       # average overall mshr miss latency ((Tick/Count))
system.cpu.dcache.overallAvgMshrMissLatency::cpu.data 70909.865045                       # average overall mshr miss latency ((Tick/Count))
system.cpu.dcache.overallAvgMshrMissLatency::total 70909.865045                       # average overall mshr miss latency ((Tick/Count))
system.cpu.dcache.replacements                  28125                       # number of replacements (Count)
system.cpu.dcache.ReadReq.hits::cpu.data      1050213                       # number of ReadReq hits (Count)
system.cpu.dcache.ReadReq.hits::total         1050213                       # number of ReadReq hits (Count)
system.cpu.dcache.ReadReq.misses::cpu.data        92273                       # number of ReadReq misses (Count)
system.cpu.dcache.ReadReq.misses::total         92273                       # number of ReadReq misses (Count)
system.cpu.dcache.ReadReq.missLatency::cpu.data   6479167000                       # number of ReadReq miss ticks (Tick)
system.cpu.dcache.ReadReq.missLatency::total   6479167000                       # number of ReadReq miss ticks (Tick)
system.cpu.dcache.ReadReq.accesses::cpu.data      1142486                       # number of ReadReq accesses(hits+misses) (Count)
system.cpu.dcache.ReadReq.accesses::total      1142486                       # number of ReadReq accesses(hits+misses) (Count)
system.cpu.dcache.ReadReq.missRate::cpu.data     0.080765                       # miss rate for ReadReq accesses (Ratio)
system.cpu.dcache.ReadReq.missRate::total     0.080765                       # miss rate for ReadReq accesses (Ratio)
system.cpu.dcache.ReadReq.avgMissLatency::cpu.data 70217.365860                       # average ReadReq miss latency ((Tick/Count))
system.cpu.dcache.ReadReq.avgMissLatency::total 70217.365860                       # average ReadReq miss latency ((Tick/Count))
system.cpu.dcache.ReadReq.mshrHits::cpu.data        65829                       # number of ReadReq MSHR hits (Count)
system.cpu.dcache.ReadReq.mshrHits::total        65829                       # number of ReadReq MSHR hits (Count)
system.cpu.dcache.ReadReq.mshrMisses::cpu.data        26444                       # number of ReadReq MSHR misses (Count)
system.cpu.dcache.ReadReq.mshrMisses::total        26444                       # number of ReadReq MSHR misses (Count)
system.cpu.dcache.ReadReq.mshrMissLatency::cpu.data   1889026000                       # number of ReadReq MSHR miss ticks (Tick)
system.cpu.dcache.ReadReq.mshrMissLatency::total   1889026000                       # number of ReadReq MSHR miss ticks (Tick)
system.cpu.dcache.ReadReq.mshrMissRate::cpu.data     0.023146                       # mshr miss rate for ReadReq accesses (Ratio)
system.cpu.dcache.ReadReq.mshrMissRate::total     0.023146                       # mshr miss rate for ReadReq accesses (Ratio)
system.cpu.dcache.ReadReq.avgMshrMissLatency::cpu.data 71434.956890                       # average ReadReq mshr miss latency ((Tick/Count))
system.cpu.dcache.ReadReq.avgMshrMissLatency::total 71434.956890                       # average ReadReq mshr miss latency ((Tick/Count))
system.cpu.dcache.SwapReq.hits::cpu.data          102                       # number of SwapReq hits (Count)
system.cpu.dcache.SwapReq.hits::total             102                       # number of SwapReq hits (Count)
system.cpu.dcache.SwapReq.misses::cpu.data            6                       # number of SwapReq misses (Count)
system.cpu.dcache.SwapReq.misses::total             6                       # number of SwapReq misses (Count)
system.cpu.dcache.SwapReq.missLatency::cpu.data       382500                       # number of SwapReq miss ticks (Tick)
system.cpu.dcache.SwapReq.missLatency::total       382500                       # number of SwapReq miss ticks (Tick)
system.cpu.dcache.SwapReq.accesses::cpu.data          108                       # number of SwapReq accesses(hits+misses) (Count)
system.cpu.dcache.SwapReq.accesses::total          108                       # number of SwapReq accesses(hits+misses) (Count)
system.cpu.dcache.SwapReq.missRate::cpu.data     0.055556                       # miss rate for SwapReq accesses (Ratio)
system.cpu.dcache.SwapReq.missRate::total     0.055556                       # miss rate for SwapReq accesses (Ratio)
system.cpu.dcache.SwapReq.avgMissLatency::cpu.data        63750                       # average SwapReq miss latency ((Tick/Count))
system.cpu.dcache.SwapReq.avgMissLatency::total        63750                       # average SwapReq miss latency ((Tick/Count))
system.cpu.dcache.SwapReq.mshrMisses::cpu.data            6                       # number of SwapReq MSHR misses (Count)
system.cpu.dcache.SwapReq.mshrMisses::total            6                       # number of SwapReq MSHR misses (Count)
system.cpu.dcache.SwapReq.mshrMissLatency::cpu.data       376500                       # number of SwapReq MSHR miss ticks (Tick)
system.cpu.dcache.SwapReq.mshrMissLatency::total       376500                       # number of SwapReq MSHR miss ticks (Tick)
system.cpu.dcache.SwapReq.mshrMissRate::cpu.data     0.055556                       # mshr miss rate for SwapReq accesses (Ratio)
system.cpu.dcache.SwapReq.mshrMissRate::total     0.055556                       # mshr miss rate for SwapReq accesses (Ratio)
system.cpu.dcache.SwapReq.avgMshrMissLatency::cpu.data        62750                       # average SwapReq mshr miss latency ((Tick/Count))
system.cpu.dcache.SwapReq.avgMshrMissLatency::total        62750                       # average SwapReq mshr miss latency ((Tick/Count))
system.cpu.dcache.WriteLineReq.misses::cpu.data          131                       # number of WriteLineReq misses (Count)
system.cpu.dcache.WriteLineReq.misses::total          131                       # number of WriteLineReq misses (Count)
system.cpu.dcache.WriteLineReq.missLatency::cpu.data      4173908                       # number of WriteLineReq miss ticks (Tick)
system.cpu.dcache.WriteLineReq.missLatency::total      4173908                       # number of WriteLineReq miss ticks (Tick)
system.cpu.dcache.WriteLineReq.accesses::cpu.data          131                       # number of WriteLineReq accesses(hits+misses) (Count)
system.cpu.dcache.WriteLineReq.accesses::total          131                       # number of WriteLineReq accesses(hits+misses) (Count)
system.cpu.dcache.WriteLineReq.missRate::cpu.data            1                       # miss rate for WriteLineReq accesses (Ratio)
system.cpu.dcache.WriteLineReq.missRate::total            1                       # miss rate for WriteLineReq accesses (Ratio)
system.cpu.dcache.WriteLineReq.avgMissLatency::cpu.data 31861.893130                       # average WriteLineReq miss latency ((Tick/Count))
system.cpu.dcache.WriteLineReq.avgMissLatency::total 31861.893130                       # average WriteLineReq miss latency ((Tick/Count))
system.cpu.dcache.WriteLineReq.mshrMisses::cpu.data          131                       # number of WriteLineReq MSHR misses (Count)
system.cpu.dcache.WriteLineReq.mshrMisses::total          131                       # number of WriteLineReq MSHR misses (Count)
system.cpu.dcache.WriteLineReq.mshrMissLatency::cpu.data      4042908                       # number of WriteLineReq MSHR miss ticks (Tick)
system.cpu.dcache.WriteLineReq.mshrMissLatency::total      4042908                       # number of WriteLineReq MSHR miss ticks (Tick)
system.cpu.dcache.WriteLineReq.mshrMissRate::cpu.data            1                       # mshr miss rate for WriteLineReq accesses (Ratio)
system.cpu.dcache.WriteLineReq.mshrMissRate::total            1                       # mshr miss rate for WriteLineReq accesses (Ratio)
system.cpu.dcache.WriteLineReq.avgMshrMissLatency::cpu.data 30861.893130                       # average WriteLineReq mshr miss latency ((Tick/Count))
system.cpu.dcache.WriteLineReq.avgMshrMissLatency::total 30861.893130                       # average WriteLineReq mshr miss latency ((Tick/Count))
system.cpu.dcache.WriteReq.hits::cpu.data       186214                       # number of WriteReq hits (Count)
system.cpu.dcache.WriteReq.hits::total         186214                       # number of WriteReq hits (Count)
system.cpu.dcache.WriteReq.misses::cpu.data         6031                       # number of WriteReq misses (Count)
system.cpu.dcache.WriteReq.misses::total         6031                       # number of WriteReq misses (Count)
system.cpu.dcache.WriteReq.missLatency::cpu.data    382261575                       # number of WriteReq miss ticks (Tick)
system.cpu.dcache.WriteReq.missLatency::total    382261575                       # number of WriteReq miss ticks (Tick)
system.cpu.dcache.WriteReq.accesses::cpu.data       192245                       # number of WriteReq accesses(hits+misses) (Count)
system.cpu.dcache.WriteReq.accesses::total       192245                       # number of WriteReq accesses(hits+misses) (Count)
system.cpu.dcache.WriteReq.missRate::cpu.data     0.031371                       # miss rate for WriteReq accesses (Ratio)
system.cpu.dcache.WriteReq.missRate::total     0.031371                       # miss rate for WriteReq accesses (Ratio)
system.cpu.dcache.WriteReq.avgMissLatency::cpu.data 63382.784779                       # average WriteReq miss latency ((Tick/Count))
system.cpu.dcache.WriteReq.avgMissLatency::total 63382.784779                       # average WriteReq miss latency ((Tick/Count))
system.cpu.dcache.WriteReq.mshrHits::cpu.data         3463                       # number of WriteReq MSHR hits (Count)
system.cpu.dcache.WriteReq.mshrHits::total         3463                       # number of WriteReq MSHR hits (Count)
system.cpu.dcache.WriteReq.mshrMisses::cpu.data         2568                       # number of WriteReq MSHR misses (Count)
system.cpu.dcache.WriteReq.mshrMisses::total         2568                       # number of WriteReq MSHR misses (Count)
system.cpu.dcache.WriteReq.mshrMissLatency::cpu.data    173457289                       # number of WriteReq MSHR miss ticks (Tick)
system.cpu.dcache.WriteReq.mshrMissLatency::total    173457289                       # number of WriteReq MSHR miss ticks (Tick)
system.cpu.dcache.WriteReq.mshrMissRate::cpu.data     0.013358                       # mshr miss rate for WriteReq accesses (Ratio)
system.cpu.dcache.WriteReq.mshrMissRate::total     0.013358                       # mshr miss rate for WriteReq accesses (Ratio)
system.cpu.dcache.WriteReq.avgMshrMissLatency::cpu.data 67545.673287                       # average WriteReq mshr miss latency ((Tick/Count))
system.cpu.dcache.WriteReq.avgMshrMissLatency::total 67545.673287                       # average WriteReq mshr miss latency ((Tick/Count))
system.cpu.dcache.power_state.pwrStateResidencyTicks::UNDEFINED   1858525000                       # Cumulative time (in ticks) in various power states (Tick)
system.cpu.dcache.tags.tagsInUse          1003.964375                       # Average ticks per tags in use ((Tick/Count))
system.cpu.dcache.tags.totalRefs              1265678                       # Total number of references to valid blocks. (Count)
system.cpu.dcache.tags.sampledRefs              29149                       # Sample count of references to valid blocks. (Count)
system.cpu.dcache.tags.avgRefs              43.420975                       # Average number of references to valid blocks. ((Count/Count))
system.cpu.dcache.tags.warmupTick              253500                       # The tick when the warmup percentage was hit. (Tick)
system.cpu.dcache.tags.occupancies::cpu.data  1003.964375                       # Average occupied blocks per tick, per requestor ((Count/Tick))
system.cpu.dcache.tags.avgOccs::cpu.data     0.980434                       # Average percentage of cache occupancy ((Ratio/Tick))
system.cpu.dcache.tags.avgOccs::total        0.980434                       # Average percentage of cache occupancy ((Ratio/Tick))
system.cpu.dcache.tags.occupanciesTaskId::1024         1024                       # Occupied blocks per task id (Count)
system.cpu.dcache.tags.ageTaskId_1024::0           97                       # Occupied blocks per task id, per block age (Count)
system.cpu.dcache.tags.ageTaskId_1024::1          917                       # Occupied blocks per task id, per block age (Count)
system.cpu.dcache.tags.ageTaskId_1024::2            8                       # Occupied blocks per task id, per block age (Count)
system.cpu.dcache.tags.ageTaskId_1024::3            2                       # Occupied blocks per task id, per block age (Count)
system.cpu.dcache.tags.ratioOccsTaskId::1024            1                       # Ratio of occupied blocks and all blocks, per task id (Ratio)
system.cpu.dcache.tags.tagAccesses            5369029                       # Number of tag accesses (Count)
system.cpu.dcache.tags.dataAccesses           5369029                       # Number of data accesses (Count)
system.cpu.dcache.tags.power_state.pwrStateResidencyTicks::UNDEFINED   1858525000                       # Cumulative time (in ticks) in various power states (Tick)
system.cpu.decode.idleCycles                   464902                       # Number of cycles decode is idle (Cycle)
system.cpu.decode.blockedCycles               2130193                       # Number of cycles decode is blocked (Cycle)
system.cpu.decode.runCycles                    797507                       # Number of cycles decode is running (Cycle)
system.cpu.decode.unblockCycles                162481                       # Number of cycles decode is unblocking (Cycle)
system.cpu.decode.squashCycles                  16399                       # Number of cycles decode is squashing (Cycle)
system.cpu.decode.branchResolved               329340                       # Number of times decode resolved a branch (Count)
system.cpu.decode.branchMispred                   880                       # Number of times decode detected a branch misprediction (Count)
system.cpu.decode.decodedInsts                6485641                       # Number of instructions handled by decode (Count)
system.cpu.decode.squashedInsts                  2931                       # Number of squashed instructions handled by decode (Count)
system.cpu.fetch.icacheStallCycles             576742                       # Number of cycles fetch is stalled on an Icache miss (Cycle)
system.cpu.fetch.insts                        5522818                       # Number of instructions fetch has processed (Count)
system.cpu.fetch.branches                      737760                       # Number of branches that fetch encountered (Count)
system.cpu.fetch.predictedBranches             371833                       # Number of branches that fetch has predicted taken (Count)
system.cpu.fetch.cycles                       2970328                       # Number of cycles fetch has run and was not squashing or blocked (Cycle)
system.cpu.fetch.squashCycles                   34496                       # Number of cycles fetch has spent squashing (Cycle)
system.cpu.fetch.tlbCycles                          8                       # Number of cycles fetch has spent waiting for tlb (Cycle)
system.cpu.fetch.miscStallCycles                  937                       # Number of cycles fetch has spent waiting on interrupts, or bad addresses, or out of MSHRs (Cycle)
system.cpu.fetch.pendingTrapStallCycles          6168                       # Number of stall cycles due to pending traps (Cycle)
system.cpu.fetch.icacheWaitRetryStallCycles           51                       # Number of stall cycles due to full MSHR (Cycle)
system.cpu.fetch.cacheLines                    527689                       # Number of cache lines fetched (Count)
system.cpu.fetch.icacheSquashes                  4972                       # Number of outstanding Icache misses that were squashed (Count)
system.cpu.fetch.nisnDist::samples            3571482                       # Number of instructions fetched each cycle (Total) (Count)
system.cpu.fetch.nisnDist::mean              1.874637                       # Number of instructions fetched each cycle (Total) (Count)
system.cpu.fetch.nisnDist::stdev             3.074265                       # Number of instructions fetched each cycle (Total) (Count)
system.cpu.fetch.nisnDist::underflows               0      0.00%      0.00% # Number of instructions fetched each cycle (Total) (Count)
system.cpu.fetch.nisnDist::0                  2444831     68.45%     68.45% # Number of instructions fetched each cycle (Total) (Count)
system.cpu.fetch.nisnDist::1                    67229      1.88%     70.34% # Number of instructions fetched each cycle (Total) (Count)
system.cpu.fetch.nisnDist::2                    78586      2.20%     72.54% # Number of instructions fetched each cycle (Total) (Count)
system.cpu.fetch.nisnDist::3                    66220      1.85%     74.39% # Number of instructions fetched each cycle (Total) (Count)
system.cpu.fetch.nisnDist::4                   128077      3.59%     77.98% # Number of instructions fetched each cycle (Total) (Count)
system.cpu.fetch.nisnDist::5                   139304      3.90%     81.88% # Number of instructions fetched each cycle (Total) (Count)
system.cpu.fetch.nisnDist::6                    45611      1.28%     83.15% # Number of instructions fetched each cycle (Total) (Count)
system.cpu.fetch.nisnDist::7                    23316      0.65%     83.81% # Number of instructions fetched each cycle (Total) (Count)
system.cpu.fetch.nisnDist::8                   578308     16.19%    100.00% # Number of instructions fetched each cycle (Total) (Count)
system.cpu.fetch.nisnDist::overflows                0      0.00%    100.00% # Number of instructions fetched each cycle (Total) (Count)
system.cpu.fetch.nisnDist::min_value                0                       # Number of instructions fetched each cycle (Total) (Count)
system.cpu.fetch.nisnDist::max_value                8                       # Number of instructions fetched each cycle (Total) (Count)
system.cpu.fetch.nisnDist::total              3571482                       # Number of instructions fetched each cycle (Total) (Count)
system.cpu.fetch.branchRate                  0.198480                       # Number of branch fetches per cycle (Ratio)
system.cpu.fetch.rate                        1.485806                       # Number of inst fetches per cycle ((Count/Cycle))
system.cpu.icache.demandHits::cpu.inst         524955                       # number of demand (read+write) hits (Count)
system.cpu.icache.demandHits::total            524955                       # number of demand (read+write) hits (Count)
system.cpu.icache.overallHits::cpu.inst        524955                       # number of overall hits (Count)
system.cpu.icache.overallHits::total           524955                       # number of overall hits (Count)
system.cpu.icache.demandMisses::cpu.inst         2734                       # number of demand (read+write) misses (Count)
system.cpu.icache.demandMisses::total            2734                       # number of demand (read+write) misses (Count)
system.cpu.icache.overallMisses::cpu.inst         2734                       # number of overall misses (Count)
system.cpu.icache.overallMisses::total           2734                       # number of overall misses (Count)
system.cpu.icache.demandMissLatency::cpu.inst    182499499                       # number of demand (read+write) miss ticks (Tick)
system.cpu.icache.demandMissLatency::total    182499499                       # number of demand (read+write) miss ticks (Tick)
system.cpu.icache.overallMissLatency::cpu.inst    182499499                       # number of overall miss ticks (Tick)
system.cpu.icache.overallMissLatency::total    182499499                       # number of overall miss ticks (Tick)
system.cpu.icache.demandAccesses::cpu.inst       527689                       # number of demand (read+write) accesses (Count)
system.cpu.icache.demandAccesses::total        527689                       # number of demand (read+write) accesses (Count)
system.cpu.icache.overallAccesses::cpu.inst       527689                       # number of overall (read+write) accesses (Count)
system.cpu.icache.overallAccesses::total       527689                       # number of overall (read+write) accesses (Count)
system.cpu.icache.demandMissRate::cpu.inst     0.005181                       # miss rate for demand accesses (Ratio)
system.cpu.icache.demandMissRate::total      0.005181                       # miss rate for demand accesses (Ratio)
system.cpu.icache.overallMissRate::cpu.inst     0.005181                       # miss rate for overall accesses (Ratio)
system.cpu.icache.overallMissRate::total     0.005181                       # miss rate for overall accesses (Ratio)
system.cpu.icache.demandAvgMissLatency::cpu.inst 66751.828456                       # average overall miss latency in ticks ((Tick/Count))
system.cpu.icache.demandAvgMissLatency::total 66751.828456                       # average overall miss latency in ticks ((Tick/Count))
system.cpu.icache.overallAvgMissLatency::cpu.inst 66751.828456                       # average overall miss latency ((Tick/Count))
system.cpu.icache.overallAvgMissLatency::total 66751.828456                       # average overall miss latency ((Tick/Count))
system.cpu.icache.blockedCycles::no_mshrs          738                       # number of cycles access was blocked (Cycle)
system.cpu.icache.blockedCycles::no_targets            0                       # number of cycles access was blocked (Cycle)
system.cpu.icache.blockedCauses::no_mshrs           11                       # number of times access was blocked (Count)
system.cpu.icache.blockedCauses::no_targets            0                       # number of times access was blocked (Count)
system.cpu.icache.avgBlocked::no_mshrs      67.090909                       # average number of cycles each access was blocked ((Cycle/Count))
system.cpu.icache.avgBlocked::no_targets          nan                       # average number of cycles each access was blocked ((Cycle/Count))
system.cpu.icache.writebacks::writebacks         1887                       # number of writebacks (Count)
system.cpu.icache.writebacks::total              1887                       # number of writebacks (Count)
system.cpu.icache.demandMshrHits::cpu.inst          590                       # number of demand (read+write) MSHR hits (Count)
system.cpu.icache.demandMshrHits::total           590                       # number of demand (read+write) MSHR hits (Count)
system.cpu.icache.overallMshrHits::cpu.inst          590                       # number of overall MSHR hits (Count)
system.cpu.icache.overallMshrHits::total          590                       # number of overall MSHR hits (Count)
system.cpu.icache.demandMshrMisses::cpu.inst         2144                       # number of demand (read+write) MSHR misses (Count)
system.cpu.icache.demandMshrMisses::total         2144                       # number of demand (read+write) MSHR misses (Count)
system.cpu.icache.overallMshrMisses::cpu.inst         2144                       # number of overall MSHR misses (Count)
system.cpu.icache.overallMshrMisses::total         2144                       # number of overall MSHR misses (Count)
system.cpu.icache.demandMshrMissLatency::cpu.inst    144976500                       # number of demand (read+write) MSHR miss ticks (Tick)
system.cpu.icache.demandMshrMissLatency::total    144976500                       # number of demand (read+write) MSHR miss ticks (Tick)
system.cpu.icache.overallMshrMissLatency::cpu.inst    144976500                       # number of overall MSHR miss ticks (Tick)
system.cpu.icache.overallMshrMissLatency::total    144976500                       # number of overall MSHR miss ticks (Tick)
system.cpu.icache.demandMshrMissRate::cpu.inst     0.004063                       # mshr miss ratio for demand accesses (Ratio)
system.cpu.icache.demandMshrMissRate::total     0.004063                       # mshr miss ratio for demand accesses (Ratio)
system.cpu.icache.overallMshrMissRate::cpu.inst     0.004063                       # mshr miss ratio for overall accesses (Ratio)
system.cpu.icache.overallMshrMissRate::total     0.004063                       # mshr miss ratio for overall accesses (Ratio)
system.cpu.icache.demandAvgMshrMissLatency::cpu.inst 67619.636194                       # average overall mshr miss latency ((Tick/Count))
system.cpu.icache.demandAvgMshrMissLatency::total 67619.636194                       # average overall mshr miss latency ((Tick/Count))
system.cpu.icache.overallAvgMshrMissLatency::cpu.inst 67619.636194                       # average overall mshr miss latency ((Tick/Count))
system.cpu.icache.overallAvgMshrMissLatency::total 67619.636194                       # average overall mshr miss latency ((Tick/Count))
system.cpu.icache.replacements                   1887                       # number of replacements (Count)
system.cpu.icache.ReadReq.hits::cpu.inst       524955                       # number of ReadReq hits (Count)
system.cpu.icache.ReadReq.hits::total          524955                       # number of ReadReq hits (Count)
system.cpu.icache.ReadReq.misses::cpu.inst         2734                       # number of ReadReq misses (Count)
system.cpu.icache.ReadReq.misses::total          2734                       # number of ReadReq misses (Count)
system.cpu.icache.ReadReq.missLatency::cpu.inst    182499499                       # number of ReadReq miss ticks (Tick)
system.cpu.icache.ReadReq.missLatency::total    182499499                       # number of ReadReq miss ticks (Tick)
system.cpu.icache.ReadReq.accesses::cpu.inst       527689                       # number of ReadReq accesses(hits+misses) (Count)
system.cpu.icache.ReadReq.accesses::total       527689                       # number of ReadReq accesses(hits+misses) (Count)
system.cpu.icache.ReadReq.missRate::cpu.inst     0.005181                       # miss rate for ReadReq accesses (Ratio)
system.cpu.icache.ReadReq.missRate::total     0.005181                       # miss rate for ReadReq accesses (Ratio)
system.cpu.icache.ReadReq.avgMissLatency::cpu.inst 66751.828456                       # average ReadReq miss latency ((Tick/Count))
system.cpu.icache.ReadReq.avgMissLatency::total 66751.828456                       # average ReadReq miss latency ((Tick/Count))
system.cpu.icache.ReadReq.mshrHits::cpu.inst          590                       # number of ReadReq MSHR hits (Count)
system.cpu.icache.ReadReq.mshrHits::total          590                       # number of ReadReq MSHR hits (Count)
system.cpu.icache.ReadReq.mshrMisses::cpu.inst         2144                       # number of ReadReq MSHR misses (Count)
system.cpu.icache.ReadReq.mshrMisses::total         2144                       # number of ReadReq MSHR misses (Count)
system.cpu.icache.ReadReq.mshrMissLatency::cpu.inst    144976500                       # number of ReadReq MSHR miss ticks (Tick)
system.cpu.icache.ReadReq.mshrMissLatency::total    144976500                       # number of ReadReq MSHR miss ticks (Tick)
system.cpu.icache.ReadReq.mshrMissRate::cpu.inst     0.004063                       # mshr miss rate for ReadReq accesses (Ratio)
system.cpu.icache.ReadReq.mshrMissRate::total     0.004063                       # mshr miss rate for ReadReq accesses (Ratio)
system.cpu.icache.ReadReq.avgMshrMissLatency::cpu.inst 67619.636194                       # average ReadReq mshr miss latency ((Tick/Count))
system.cpu.icache.ReadReq.avgMshrMissLatency::total 67619.636194                       # average ReadReq mshr miss latency ((Tick/Count))
system.cpu.icache.power_state.pwrStateResidencyTicks::UNDEFINED   1858525000                       # Cumulative time (in ticks) in various power states (Tick)
system.cpu.icache.tags.tagsInUse           253.943541                       # Average ticks per tags in use ((Tick/Count))
system.cpu.icache.tags.totalRefs               527098                       # Total number of references to valid blocks. (Count)
system.cpu.icache.tags.sampledRefs               2143                       # Sample count of references to valid blocks. (Count)
system.cpu.icache.tags.avgRefs             245.962669                       # Average number of references to valid blocks. ((Count/Count))
system.cpu.icache.tags.warmupTick               87500                       # The tick when the warmup percentage was hit. (Tick)
system.cpu.icache.tags.occupancies::cpu.inst   253.943541                       # Average occupied blocks per tick, per requestor ((Count/Tick))
system.cpu.icache.tags.avgOccs::cpu.inst     0.991967                       # Average percentage of cache occupancy ((Ratio/Tick))
system.cpu.icache.tags.avgOccs::total        0.991967                       # Average percentage of cache occupancy ((Ratio/Tick))
system.cpu.icache.tags.occupanciesTaskId::1024          256                       # Occupied blocks per task id (Count)
system.cpu.icache.tags.ageTaskId_1024::0           88                       # Occupied blocks per task id, per block age (Count)
system.cpu.icache.tags.ageTaskId_1024::1           84                       # Occupied blocks per task id, per block age (Count)
system.cpu.icache.tags.ageTaskId_1024::2           59                       # Occupied blocks per task id, per block age (Count)
system.cpu.icache.tags.ageTaskId_1024::3           25                       # Occupied blocks per task id, per block age (Count)
system.cpu.icache.tags.ratioOccsTaskId::1024            1                       # Ratio of occupied blocks and all blocks, per task id (Ratio)
system.cpu.icache.tags.tagAccesses            2112899                       # Number of tag accesses (Count)
system.cpu.icache.tags.dataAccesses           2112899                       # Number of data accesses (Count)
system.cpu.icache.tags.power_state.pwrStateResidencyTicks::UNDEFINED   1858525000                       # Cumulative time (in ticks) in various power states (Tick)
system.cpu.iew.idleCycles                           0                       # Number of cycles IEW is idle (Cycle)
system.cpu.iew.squashCycles                     16399                       # Number of cycles IEW is squashing (Cycle)
system.cpu.iew.blockCycles                    1548415                       # Number of cycles IEW is blocking (Cycle)
system.cpu.iew.unblockCycles                    68129                       # Number of cycles IEW is unblocking (Cycle)
system.cpu.iew.dispatchedInsts                6346055                       # Number of instructions dispatched to IQ (Count)
system.cpu.iew.dispSquashedInsts                 1996                       # Number of squashed instructions skipped by dispatch (Count)
system.cpu.iew.dispLoadInsts                  1164658                       # Number of dispatched load instructions (Count)
system.cpu.iew.dispStoreInsts                  229936                       # Number of dispatched store instructions (Count)
system.cpu.iew.dispNonSpecInsts                   409                       # Number of dispatched non-speculative instructions (Count)
system.cpu.iew.iqFullEvents                     28536                       # Number of times the IQ has become full, causing a stall (Count)
system.cpu.iew.lsqFullEvents                    29859                       # Number of times the LSQ has become full, causing a stall (Count)
system.cpu.iew.memOrderViolationEvents             68                       # Number of memory order violations (Count)
system.cpu.iew.predictedTakenIncorrect           7963                       # Number of branches that were predicted taken incorrectly (Count)
system.cpu.iew.predictedNotTakenIncorrect        10287                       # Number of branches that were predicted not taken incorrectly (Count)
system.cpu.iew.branchMispredicts                18250                       # Number of branch mispredicts detected at execute (Count)
system.cpu.iew.instsToCommit                  6051507                       # Cumulative count of insts sent to commit (Count)
system.cpu.iew.writebackCount                 6039882                       # Cumulative count of insts written-back (Count)
system.cpu.iew.producerInst                   4605990                       # Number of instructions producing a value (Count)
system.cpu.iew.consumerInst                   7610246                       # Number of instructions consuming a value (Count)
system.cpu.iew.wbRate                        1.624912                       # Insts written-back per cycle ((Count/Cycle))
system.cpu.iew.wbFanout                      0.605235                       # Average fanout of values written-back ((Count/Count))
system.cpu.lsq0.forwLoads                       24569                       # Number of loads that had data forwarded from stores (Count)
system.cpu.lsq0.squashedLoads                  113221                       # Number of loads squashed (Count)
system.cpu.lsq0.ignoredResponses                   45                       # Number of memory responses ignored because the instruction is squashed (Count)
system.cpu.lsq0.memOrderViolation                  68                       # Number of memory ordering violations (Count)
system.cpu.lsq0.squashedStores                  37466                       # Number of stores squashed (Count)
system.cpu.lsq0.rescheduledLoads                 9488                       # Number of loads that were rescheduled (Count)
system.cpu.lsq0.blockedByCache                   2008                       # Number of times an access to memory failed due to the cache being blocked (Count)
system.cpu.lsq0.loadToUse::samples            1051437                       # Distribution of cycle latency between the first time a load is issued and its completion (Unspecified)
system.cpu.lsq0.loadToUse::mean             15.236309                       # Distribution of cycle latency between the first time a load is issued and its completion (Unspecified)
system.cpu.lsq0.loadToUse::stdev            47.665203                       # Distribution of cycle latency between the first time a load is issued and its completion (Unspecified)
system.cpu.lsq0.loadToUse::0-9                 967277     92.00%     92.00% # Distribution of cycle latency between the first time a load is issued and its completion (Unspecified)
system.cpu.lsq0.loadToUse::10-19                 2831      0.27%     92.26% # Distribution of cycle latency between the first time a load is issued and its completion (Unspecified)
system.cpu.lsq0.loadToUse::20-29                 6879      0.65%     92.92% # Distribution of cycle latency between the first time a load is issued and its completion (Unspecified)
system.cpu.lsq0.loadToUse::30-39                 1207      0.11%     93.03% # Distribution of cycle latency between the first time a load is issued and its completion (Unspecified)
[...]
system.mem_ctrls.dram.perBankWrBursts::10          292                       # Per bank write bursts (Count)
system.mem_ctrls.dram.perBankWrBursts::11          122                       # Per bank write bursts (Count)
system.mem_ctrls.dram.perBankWrBursts::12           56                       # Per bank write bursts (Count)
system.mem_ctrls.dram.perBankWrBursts::13          263                       # Per bank write bursts (Count)
system.mem_ctrls.dram.perBankWrBursts::14           38                       # Per bank write bursts (Count)
system.mem_ctrls.dram.perBankWrBursts::15          184                       # Per bank write bursts (Count)
system.mem_ctrls.dram.totQLat               265152000                       # Total ticks spent queuing (Tick)
system.mem_ctrls.dram.totBusLat             131920000                       # Total ticks spent in databus transfers (Tick)
system.mem_ctrls.dram.totMemAccLat          759852000                       # Total ticks spent from burst creation until serviced by the DRAM (Tick)
system.mem_ctrls.dram.avgQLat                10049.73                       # Average queueing delay per DRAM burst ((Tick/Count))
system.mem_ctrls.dram.avgBusLat               5000.00                       # Average bus latency per DRAM burst ((Tick/Count))
system.mem_ctrls.dram.avgMemAccLat           28799.73                       # Average memory access latency per DRAM burst ((Tick/Count))
system.mem_ctrls.dram.readRowHits               21038                       # Number of row buffer hits during reads (Count)
system.mem_ctrls.dram.writeRowHits               1811                       # Number of row buffer hits during writes (Count)
system.mem_ctrls.dram.readRowHitRate            79.74                       # Row buffer hit rate for reads (Ratio)
system.mem_ctrls.dram.writeRowHitRate           76.90                       # Row buffer hit rate for writes (Ratio)
system.mem_ctrls.dram.bytesPerActivate::samples         5875                       # Bytes accessed per row activation (Byte)
system.mem_ctrls.dram.bytesPerActivate::mean   312.494298                       # Bytes accessed per row activation (Byte)
system.mem_ctrls.dram.bytesPerActivate::gmean   176.510567                       # Bytes accessed per row activation (Byte)
system.mem_ctrls.dram.bytesPerActivate::stdev   347.778640                       # Bytes accessed per row activation (Byte)
system.mem_ctrls.dram.bytesPerActivate::0-127         2295     39.06%     39.06% # Bytes accessed per row activation (Byte)
system.mem_ctrls.dram.bytesPerActivate::128-255         1484     25.26%     64.32% # Bytes accessed per row activation (Byte)
system.mem_ctrls.dram.bytesPerActivate::256-383          515      8.77%     73.09% # Bytes accessed per row activation (Byte)
system.mem_ctrls.dram.bytesPerActivate::384-511          205      3.49%     76.58% # Bytes accessed per row activation (Byte)
system.mem_ctrls.dram.bytesPerActivate::512-639          159      2.71%     79.29% # Bytes accessed per row activation (Byte)
system.mem_ctrls.dram.bytesPerActivate::640-767          138      2.35%     81.63% # Bytes accessed per row activation (Byte)
system.mem_ctrls.dram.bytesPerActivate::768-895          131      2.23%     83.86% # Bytes accessed per row activation (Byte)
system.mem_ctrls.dram.bytesPerActivate::896-1023           73      1.24%     85.11% # Bytes accessed per row activation (Byte)
system.mem_ctrls.dram.bytesPerActivate::1024-1151          875     14.89%    100.00% # Bytes accessed per row activation (Byte)
system.mem_ctrls.dram.bytesPerActivate::total         5875                       # Bytes accessed per row activation (Byte)
system.mem_ctrls.dram.bytesRead               1688576                       # Total bytes read (Byte)
system.mem_ctrls.dram.bytesWritten             150720                       # Total bytes written (Byte)
system.mem_ctrls.dram.avgRdBW              908.557055                       # Average DRAM read bandwidth in MiBytes/s ((Byte/Second))
system.mem_ctrls.dram.avgWrBW               81.096569                       # Average DRAM write bandwidth in MiBytes/s ((Byte/Second))
system.mem_ctrls.dram.peakBW                 12800.00                       # Theoretical peak bandwidth in MiByte/s ((Byte/Second))
system.mem_ctrls.dram.busUtil                    7.73                       # Data bus utilization in percentage (Ratio)
system.mem_ctrls.dram.busUtilRead                7.10                       # Data bus utilization in percentage for reads (Ratio)
system.mem_ctrls.dram.busUtilWrite               0.63                       # Data bus utilization in percentage for writes (Ratio)
system.mem_ctrls.dram.pageHitRate               79.51                       # Row buffer hit rate, read and write combined (Ratio)
system.mem_ctrls.dram.power_state.pwrStateResidencyTicks::UNDEFINED   1858525000                       # Cumulative time (in ticks) in various power states (Tick)
system.mem_ctrls.dram.rank0.actEnergy        21805560                       # Energy for activate commands per rank (pJ) (Joule)
system.mem_ctrls.dram.rank0.preEnergy        11563365                       # Energy for precharge commands per rank (pJ) (Joule)
system.mem_ctrls.dram.rank0.readEnergy       94983420                       # Energy for read commands per rank (pJ) (Joule)
system.mem_ctrls.dram.rank0.writeEnergy       6305760                       # Energy for write commands per rank (pJ) (Joule)
system.mem_ctrls.dram.rank0.refreshEnergy 146284320.000000                       # Energy for refresh commands per rank (pJ) (Joule)
system.mem_ctrls.dram.rank0.actBackEnergy    691930980                       # Energy for active background per rank (pJ) (Joule)
system.mem_ctrls.dram.rank0.preBackEnergy    130994880                       # Energy for precharge background per rank (pJ) (Joule)
system.mem_ctrls.dram.rank0.actPowerDownEnergy            0                       # Energy for active power-down per rank (pJ) (Joule)
system.mem_ctrls.dram.rank0.prePowerDownEnergy            0                       # Energy for precharge power-down per rank (pJ) (Joule)
system.mem_ctrls.dram.rank0.selfRefreshEnergy            0                       # Energy for self refresh per rank (pJ) (Joule)
system.mem_ctrls.dram.rank0.totalEnergy    1103868285                       # Total energy per rank (pJ) (Joule)
system.mem_ctrls.dram.rank0.averagePower   593.948580                       # Core power per rank (mW) (Watt)
system.mem_ctrls.dram.rank0.totalIdleTime            0                       # Total Idle time Per DRAM Rank (Tick)
system.mem_ctrls.dram.rank0.pwrStateTime::IDLE    333163250                       # Time in different power states (Tick)
system.mem_ctrls.dram.rank0.pwrStateTime::REF     61880000                       # Time in different power states (Tick)
system.mem_ctrls.dram.rank0.pwrStateTime::SREF            0                       # Time in different power states (Tick)
system.mem_ctrls.dram.rank0.pwrStateTime::PRE_PDN            0                       # Time in different power states (Tick)
system.mem_ctrls.dram.rank0.pwrStateTime::ACT   1463481750                       # Time in different power states (Tick)
system.mem_ctrls.dram.rank0.pwrStateTime::ACT_PDN            0                       # Time in different power states (Tick)
system.mem_ctrls.dram.rank1.actEnergy        20249040                       # Energy for activate commands per rank (pJ) (Joule)
system.mem_ctrls.dram.rank1.preEnergy        10732260                       # Energy for precharge commands per rank (pJ) (Joule)
system.mem_ctrls.dram.rank1.readEnergy       93398340                       # Energy for read commands per rank (pJ) (Joule)
system.mem_ctrls.dram.rank1.writeEnergy       5987340                       # Energy for write commands per rank (pJ) (Joule)
system.mem_ctrls.dram.rank1.refreshEnergy 146284320.000000                       # Energy for refresh commands per rank (pJ) (Joule)
system.mem_ctrls.dram.rank1.actBackEnergy    788665110                       # Energy for active background per rank (pJ) (Joule)
system.mem_ctrls.dram.rank1.preBackEnergy     49534560                       # Energy for precharge background per rank (pJ) (Joule)
system.mem_ctrls.dram.rank1.actPowerDownEnergy            0                       # Energy for active power-down per rank (pJ) (Joule)
system.mem_ctrls.dram.rank1.prePowerDownEnergy            0                       # Energy for precharge power-down per rank (pJ) (Joule)
system.mem_ctrls.dram.rank1.selfRefreshEnergy            0                       # Energy for self refresh per rank (pJ) (Joule)
system.mem_ctrls.dram.rank1.totalEnergy    1114850970                       # Total energy per rank (pJ) (Joule)
system.mem_ctrls.dram.rank1.averagePower   599.857936                       # Core power per rank (mW) (Watt)
system.mem_ctrls.dram.rank1.totalIdleTime            0                       # Total Idle time Per DRAM Rank (Tick)
system.mem_ctrls.dram.rank1.pwrStateTime::IDLE    121694500                       # Time in different power states (Tick)
system.mem_ctrls.dram.rank1.pwrStateTime::REF     61880000                       # Time in different power states (Tick)
system.mem_ctrls.dram.rank1.pwrStateTime::SREF            0                       # Time in different power states (Tick)
system.mem_ctrls.dram.rank1.pwrStateTime::PRE_PDN            0                       # Time in different power states (Tick)
system.mem_ctrls.dram.rank1.pwrStateTime::ACT   1674950500                       # Time in different power states (Tick)
system.mem_ctrls.dram.rank1.pwrStateTime::ACT_PDN            0                       # Time in different power states (Tick)
system.mem_ctrls.power_state.pwrStateResidencyTicks::UNDEFINED   1858525000                       # Cumulative time (in ticks) in various power states (Tick)
system.membus.transDist::ReadResp               24420                       # Transaction distribution (Count)
system.membus.transDist::WritebackDirty          2376                       # Transaction distribution (Count)
system.membus.transDist::CleanEvict             19996                       # Transaction distribution (Count)
system.membus.transDist::ReadExReq               1999                       # Transaction distribution (Count)
system.membus.transDist::ReadExResp              1999                       # Transaction distribution (Count)
system.membus.transDist::ReadSharedReq          24420                       # Transaction distribution (Count)
system.membus.transDist::InvalidateReq            143                       # Transaction distribution (Count)
system.membus.pktCount_system.l2.mem_side_port::system.mem_ctrls.port        75353                       # Packet count per connected requestor and responder (Count)
system.membus.pktCount::total                   75353                       # Packet count per connected requestor and responder (Count)
system.membus.pktSize_system.l2.mem_side_port::system.mem_ctrls.port      1842880                       # Cumulative packet size per connected requestor and responder (Byte)
system.membus.pktSize::total                  1842880                       # Cumulative packet size per connected requestor and responder (Byte)
system.membus.snoops                                0                       # Total snoops (Count)
system.membus.snoopTraffic                          0                       # Total snoop traffic (Byte)
system.membus.snoopFanout::samples              26562                       # Request fanout histogram (Count)
system.membus.snoopFanout::mean                     0                       # Request fanout histogram (Count)
system.membus.snoopFanout::stdev                    0                       # Request fanout histogram (Count)
system.membus.snoopFanout::underflows               0      0.00%      0.00% # Request fanout histogram (Count)
system.membus.snoopFanout::0                    26562    100.00%    100.00% # Request fanout histogram (Count)
system.membus.snoopFanout::1                        0      0.00%    100.00% # Request fanout histogram (Count)
system.membus.snoopFanout::overflows                0      0.00%    100.00% # Request fanout histogram (Count)
system.membus.snoopFanout::min_value                0                       # Request fanout histogram (Count)
system.membus.snoopFanout::max_value                0                       # Request fanout histogram (Count)
system.membus.snoopFanout::total                26562                       # Request fanout histogram (Count)
system.membus.power_state.pwrStateResidencyTicks::UNDEFINED   1858525000                       # Cumulative time (in ticks) in various power states (Tick)
system.membus.reqLayer0.occupancy            63612000                       # Layer occupancy (ticks) (Tick)
system.membus.reqLayer0.utilization               0.0                       # Layer utilization (Ratio)
system.membus.respLayer1.occupancy          138734000                       # Layer occupancy (ticks) (Tick)
system.membus.respLayer1.utilization              0.1                       # Layer utilization (Ratio)
system.membus.snoop_filter.totRequests          48934                       # Total number of requests made to the snoop filter. (Count)
system.membus.snoop_filter.hitSingleRequests        22372                       # Number of requests hitting in the snoop filter with a single holder of the requested data. (Count)
system.membus.snoop_filter.hitMultiRequests            0                       # Number of requests hitting in the snoop filter with multiple (>1) holders of the requested data. (Count)
system.membus.snoop_filter.totSnoops                0                       # Total number of snoops made to the snoop filter. (Count)
system.membus.snoop_filter.hitSingleSnoops            0                       # Number of snoops hitting in the snoop filter with a single holder of the requested data. (Count)
system.membus.snoop_filter.hitMultiSnoops            0                       # Number of snoops hitting in the snoop filter with multiple (>1) holders of the requested data. (Count)
system.tol2bus.transDist::ReadResp              28587                       # Transaction distribution (Count)
system.tol2bus.transDist::WritebackDirty         5762                       # Transaction distribution (Count)
system.tol2bus.transDist::WritebackClean         1887                       # Transaction distribution (Count)
system.tol2bus.transDist::CleanEvict            45379                       # Transaction distribution (Count)
system.tol2bus.transDist::ReadExReq              2561                       # Transaction distribution (Count)
system.tol2bus.transDist::ReadExResp             2561                       # Transaction distribution (Count)
system.tol2bus.transDist::ReadCleanReq           2144                       # Transaction distribution (Count)
system.tol2bus.transDist::ReadSharedReq         26444                       # Transaction distribution (Count)
system.tol2bus.transDist::InvalidateReq           144                       # Transaction distribution (Count)
system.tol2bus.transDist::InvalidateResp          144                       # Transaction distribution (Count)
system.tol2bus.pktCount_system.cpu.icache.mem_side_port::system.l2.cpu_side_port         6174                       # Packet count per connected requestor and responder (Count)
system.tol2bus.pktCount_system.cpu.dcache.mem_side_port::system.l2.cpu_side_port        86423                       # Packet count per connected requestor and responder (Count)
system.tol2bus.pktCount::total                  92597                       # Packet count per connected requestor and responder (Count)
system.tol2bus.pktSize_system.cpu.icache.mem_side_port::system.l2.cpu_side_port       257920                       # Cumulative packet size per connected requestor and responder (Byte)
system.tol2bus.pktSize_system.cpu.dcache.mem_side_port::system.l2.cpu_side_port      2073024                       # Cumulative packet size per connected requestor and responder (Byte)
system.tol2bus.pktSize::total                 2330944                       # Cumulative packet size per connected requestor and responder (Byte)
system.tol2bus.snoops                           23016                       # Total snoops (Count)
system.tol2bus.snoopTraffic                    152064                       # Total snoop traffic (Byte)
system.tol2bus.snoopFanout::samples             54309                       # Request fanout histogram (Count)
system.tol2bus.snoopFanout::mean             0.015670                       # Request fanout histogram (Count)
system.tol2bus.snoopFanout::stdev            0.124195                       # Request fanout histogram (Count)
system.tol2bus.snoopFanout::underflows              0      0.00%      0.00% # Request fanout histogram (Count)
system.tol2bus.snoopFanout::0                   53458     98.43%     98.43% # Request fanout histogram (Count)
system.tol2bus.snoopFanout::1                     851      1.57%    100.00% # Request fanout histogram (Count)
system.tol2bus.snoopFanout::2                       0      0.00%    100.00% # Request fanout histogram (Count)
system.tol2bus.snoopFanout::overflows               0      0.00%    100.00% # Request fanout histogram (Count)
system.tol2bus.snoopFanout::min_value               0                       # Request fanout histogram (Count)
system.tol2bus.snoopFanout::max_value               1                       # Request fanout histogram (Count)
system.tol2bus.snoopFanout::total               54309                       # Request fanout histogram (Count)
system.tol2bus.power_state.pwrStateResidencyTicks::UNDEFINED   1858525000                       # Cumulative time (in ticks) in various power states (Tick)
system.tol2bus.reqLayer0.occupancy           35925500                       # Layer occupancy (ticks) (Tick)
system.tol2bus.reqLayer0.utilization              0.0                       # Layer utilization (Ratio)
system.tol2bus.respLayer0.occupancy           3214500                       # Layer occupancy (ticks) (Tick)
system.tol2bus.respLayer0.utilization             0.0                       # Layer utilization (Ratio)
system.tol2bus.respLayer1.occupancy          43579500                       # Layer occupancy (ticks) (Tick)
system.tol2bus.respLayer1.utilization             0.0                       # Layer utilization (Ratio)
system.tol2bus.snoop_filter.totRequests         61305                       # Total number of requests made to the snoop filter. (Count)
system.tol2bus.snoop_filter.hitSingleRequests        30012                       # Number of requests hitting in the snoop filter with a single holder of the requested data. (Count)
system.tol2bus.snoop_filter.hitMultiRequests            1                       # Number of requests hitting in the snoop filter with multiple (>1) holders of the requested data. (Count)
system.tol2bus.snoop_filter.totSnoops             850                       # Total number of snoops made to the snoop filter. (Count)
system.tol2bus.snoop_filter.hitSingleSnoops          850                       # Number of snoops hitting in the snoop filter with a single holder of the requested data. (Count)
system.tol2bus.snoop_filter.hitMultiSnoops            0                       # Number of snoops hitting in the snoop filter with multiple (>1) holders of the requested data. (Count)
system.voltage_domain.voltage                       1                       # Voltage in Volts (Volt)
system.workload.inst.arm                            0                       # number of arm instructions executed (Count)
system.workload.inst.quiesce                        0                       # number of quiesce instructions executed (Count)

---------- End Simulation Statistics   ----------
