
---------- Begin Simulation Statistics ----------
simSeconds                                   0.002040                       # Number of seconds simulated (Second)
simTicks                                   2039576000                       # Number of ticks simulated (Tick)
finalTick                                  3035785000                       # Number of ticks from beginning of simulation (restored from checkpoints and never reset) (Tick)
simFreq                                  1000000000000                       # The number of ticks per simulated second ((Tick/Second))
hostSeconds                                     27.71                       # Real time elapsed on the host (Second)
hostTickRate                                 73595388                       # The number of ticks simulated per host second (ticks/s) ((Tick/Second))
hostMemory                                     681156                       # Number of bytes of host memory used (Byte)
simInsts                                      8796113                       # Number of instructions simulated (Count)
simOps                                       11246379                       # Number of ops (including micro ops) simulated (Count)
hostInstRate                                   317395                       # Simulator instruction rate (inst/s) ((Count/Second))
hostOpRate                                     405808                       # Simulator op (including micro ops) rate (op/s) ((Count/Second))
system.clk_domain.clock                          1000                       # Clock period in ticks (Tick)
system.cpu.numCycles                          4079152                       # Number of cpu cycles simulated (Cycle)
system.cpu.numWorkItemsStarted                      0                       # Number of work items this cpu started (Count)
system.cpu.numWorkItemsCompleted                    0                       # Number of work items this cpu completed (Count)
system.cpu.instsAdded                         9359946                       # Number of instructions added to the IQ (excludes non-spec) (Count)
system.cpu.nonSpecInstsAdded                      244                       # Number of non-speculative instructions added to the IQ (Count)
system.cpu.instsIssued                        9435399                       # Number of instructions issued (Count)
system.cpu.squashedInstsIssued                    108                       # Number of squashed instructions issued (Count)
system.cpu.squashedInstsExamined                40604                       # Number of squashed instructions iterated over during squash; mainly for profiling (Count)
system.cpu.squashedOperandsExamined             67821                       # Number of squashed operands that are examined and possibly removed from graph (Count)
system.cpu.squashedNonSpecRemoved                  99                       # Number of squashed non-spec instructions that were removed (Count)
system.cpu.numIssuedDist::samples             4055761                       # Number of insts issued each cycle (Count)
system.cpu.numIssuedDist::mean               2.326419                       # Number of insts issued each cycle (Count)
system.cpu.numIssuedDist::stdev              2.985838                       # Number of insts issued each cycle (Count)
system.cpu.numIssuedDist::underflows                0      0.00%      0.00% # Number of insts issued each cycle (Count)
system.cpu.numIssuedDist::0                   2222626     54.80%     54.80% # Number of insts issued each cycle (Count)
system.cpu.numIssuedDist::1                    152491      3.76%     58.56% # Number of insts issued each cycle (Count)
system.cpu.numIssuedDist::2                    200676      4.95%     63.51% # Number of insts issued each cycle (Count)
system.cpu.numIssuedDist::3                    117382      2.89%     66.40% # Number of insts issued each cycle (Count)
system.cpu.numIssuedDist::4                    196203      4.84%     71.24% # Number of insts issued each cycle (Count)
system.cpu.numIssuedDist::5                    252099      6.22%     77.46% # Number of insts issued each cycle (Count)
system.cpu.numIssuedDist::6                    296861      7.32%     84.78% # Number of insts issued each cycle (Count)
system.cpu.numIssuedDist::7                    236447      5.83%     90.61% # Number of insts issued each cycle (Count)
system.cpu.numIssuedDist::8                    380976      9.39%    100.00% # Number of insts issued each cycle (Count)
system.cpu.numIssuedDist::overflows                 0      0.00%    100.00% # Number of insts issued each cycle (Count)
system.cpu.numIssuedDist::min_value                 0                       # Number of insts issued each cycle (Count)
system.cpu.numIssuedDist::max_value                 8                       # Number of insts issued each cycle (Count)
system.cpu.numIssuedDist::total               4055761                       # Number of insts issued each cycle (Count)
system.cpu.statFuBusy::No_OpClass                   0      0.00%      0.00% # attempts to use FU when none available (Count)
system.cpu.statFuBusy::IntAlu                     110      0.02%      0.02% # attempts to use FU when none available (Count)
system.cpu.statFuBusy::IntMult                      0      0.00%      0.02% # attempts to use FU when none available (Count)
system.cpu.statFuBusy::IntDiv                       0      0.00%      0.02% # attempts to use FU when none available (Count)
system.cpu.statFuBusy::FloatAdd                     0      0.00%      0.02% # attempts to use FU when none available (Count)
system.cpu.statFuBusy::FloatCmp                     0      0.00%      0.02% # attempts to use FU when none available (Count)
system.cpu.statFuBusy::FloatCvt                     0      0.00%      0.02% # attempts to use FU when none available (Count)
system.cpu.statFuBusy::FloatMult                    0      0.00%      0.02% # attempts to use FU when none available (Count)
system.cpu.statFuBusy::FloatMultAcc                 0      0.00%      0.02% # attempts to use FU when none available (Count)
system.cpu.statFuBusy::FloatDiv                     0      0.00%      0.02% # attempts to use FU when none available (Count)
system.cpu.statFuBusy::FloatMisc                    0      0.00%      0.02% # attempts to use FU when none available (Count)
system.cpu.statFuBusy::FloatSqrt                    0      0.00%      0.02% # attempts to use FU when none available (Count)
system.cpu.statFuBusy::SimdAdd                 136985     20.96%     20.97% # attempts to use FU when none available (Count)
system.cpu.statFuBusy::SimdAddAcc                   0      0.00%     20.97% # attempts to use FU when none available (Count)
system.cpu.statFuBusy::SimdAlu                 251829     38.52%     59.50% # attempts to use FU when none available (Count)
system.cpu.statFuBusy::SimdCmp                      0      0.00%     59.50% # attempts to use FU when none available (Count)
system.cpu.statFuBusy::SimdCvt                      0      0.00%     59.50% # attempts to use FU when none available (Count)
system.cpu.statFuBusy::SimdMisc                115128     17.61%     77.11% # attempts to use FU when none available (Count)
system.cpu.statFuBusy::SimdMult                     0      0.00%     77.11% # attempts to use FU when none available (Count)
system.cpu.statFuBusy::SimdMultAcc                  0      0.00%     77.11% # attempts to use FU when none available (Count)
system.cpu.statFuBusy::SimdShift                    0      0.00%     77.11% # attempts to use FU when none available (Count)
system.cpu.statFuBusy::SimdShiftAcc                 0      0.00%     77.11% # attempts to use FU when none available (Count)
system.cpu.statFuBusy::SimdDiv                      0      0.00%     77.11% # attempts to use FU when none available (Count)
system.cpu.statFuBusy::SimdSqrt                     0      0.00%     77.11% # attempts to use FU when none available (Count)
system.cpu.statFuBusy::SimdFloatAdd                 0      0.00%     77.11% # attempts to use FU when none available (Count)
system.cpu.statFuBusy::SimdFloatAlu                 0      0.00%     77.11% # attempts to use FU when none available (Count)
system.cpu.statFuBusy::SimdFloatCmp                 0      0.00%     77.11% # attempts to use FU when none available (Count)
system.cpu.statFuBusy::SimdFloatCvt                 0      0.00%     77.11% # attempts to use FU when none available (Count)
system.cpu.statFuBusy::SimdFloatDiv                 0      0.00%     77.11% # attempts to use FU when none available (Count)
system.cpu.statFuBusy::SimdFloatMisc                0      0.00%     77.11% # attempts to use FU when none available (Count)
system.cpu.statFuBusy::SimdFloatMult                0      0.00%     77.11% # attempts to use FU when none available (Count)
system.cpu.statFuBusy::SimdFloatMultAcc             0      0.00%     77.11% # attempts to use FU when none available (Count)
system.cpu.statFuBusy::SimdFloatSqrt                0      0.00%     77.11% # attempts to use FU when none available (Count)
system.cpu.statFuBusy::SimdReduceAdd                0      0.00%     77.11% # attempts to use FU when none available (Count)
system.cpu.statFuBusy::SimdReduceAlu                0      0.00%     77.11% # attempts to use FU when none available (Count)
system.cpu.statFuBusy::SimdReduceCmp                0      0.00%     77.11% # attempts to use FU when none available (Count)
system.cpu.statFuBusy::SimdFloatReduceAdd            0      0.00%     77.11% # attempts to use FU when none available (Count)
system.cpu.statFuBusy::SimdFloatReduceCmp            0      0.00%     77.11% # attempts to use FU when none available (Count)
system.cpu.statFuBusy::SimdAes                      0      0.00%     77.11% # attempts to use FU when none available (Count)
system.cpu.statFuBusy::SimdAesMix                   0      0.00%     77.11% # attempts to use FU when none available (Count)
system.cpu.statFuBusy::SimdSha1Hash                 0      0.00%     77.11% # attempts to use FU when none available (Count)
system.cpu.statFuBusy::SimdSha1Hash2                0      0.00%     77.11% # attempts to use FU when none available (Count)
system.cpu.statFuBusy::SimdSha256Hash               0      0.00%     77.11% # attempts to use FU when none available (Count)
system.cpu.statFuBusy::SimdSha256Hash2              0      0.00%     77.11% # attempts to use FU when none available (Count)
system.cpu.statFuBusy::SimdShaSigma2                0      0.00%     77.11% # attempts to use FU when none available (Count)
system.cpu.statFuBusy::SimdShaSigma3                0      0.00%     77.11% # attempts to use FU when none available (Count)
system.cpu.statFuBusy::SimdPredAlu                  0      0.00%     77.11% # attempts to use FU when none available (Count)
system.cpu.statFuBusy::MemRead                 128260     19.62%     96.73% # attempts to use FU when none available (Count)
system.cpu.statFuBusy::MemWrite                 21390      3.27%    100.00% # attempts to use FU when none available (Count)
system.cpu.statFuBusy::FloatMemRead                 0      0.00%    100.00% # attempts to use FU when none available (Count)
system.cpu.statFuBusy::FloatMemWrite                0      0.00%    100.00% # attempts to use FU when none available (Count)
system.cpu.statFuBusy::IprAccess                    0      0.00%    100.00% # attempts to use FU when none available (Count)
system.cpu.statFuBusy::InstPrefetch                 0      0.00%    100.00% # attempts to use FU when none available (Count)
system.cpu.statIssuedInstType_0::No_OpClass       700755      7.43%      7.43% # Number of instructions issued per FU type, per thread (Count)
system.cpu.statIssuedInstType_0::IntAlu       1913699     20.28%     27.71% # Number of instructions issued per FU type, per thread (Count)
system.cpu.statIssuedInstType_0::IntMult           31      0.00%     27.71% # Number of instructions issued per FU type, per thread (Count)
system.cpu.statIssuedInstType_0::IntDiv            15      0.00%     27.71% # Number of instructions issued per FU type, per thread (Count)
system.cpu.statIssuedInstType_0::FloatAdd            0      0.00%     27.71% # Number of instructions issued per FU type, per thread (Count)
system.cpu.statIssuedInstType_0::FloatCmp            0      0.00%     27.71% # Number of instructions issued per FU type, per thread (Count)
system.cpu.statIssuedInstType_0::FloatCvt            0      0.00%     27.71% # Number of instructions issued per FU type, per thread (Count)
system.cpu.statIssuedInstType_0::FloatMult            0      0.00%     27.71% # Number of instructions issued per FU type, per thread (Count)
system.cpu.statIssuedInstType_0::FloatMultAcc            0      0.00%     27.71% # Number of instructions issued per FU type, per thread (Count)
system.cpu.statIssuedInstType_0::FloatDiv            0      0.00%     27.71% # Number of instructions issued per FU type, per thread (Count)
system.cpu.statIssuedInstType_0::FloatMisc            0      0.00%     27.71% # Number of instructions issued per FU type, per thread (Count)
system.cpu.statIssuedInstType_0::FloatSqrt            0      0.00%     27.71% # Number of instructions issued per FU type, per thread (Count)
system.cpu.statIssuedInstType_0::SimdAdd      1158216     12.28%     39.98% # Number of instructions issued per FU type, per thread (Count)
system.cpu.statIssuedInstType_0::SimdAddAcc            0      0.00%     39.98% # Number of instructions issued per FU type, per thread (Count)
system.cpu.statIssuedInstType_0::SimdAlu      1866009     19.78%     59.76% # Number of instructions issued per FU type, per thread (Count)
system.cpu.statIssuedInstType_0::SimdCmp            0      0.00%     59.76% # Number of instructions issued per FU type, per thread (Count)
system.cpu.statIssuedInstType_0::SimdCvt            0      0.00%     59.76% # Number of instructions issued per FU type, per thread (Count)
system.cpu.statIssuedInstType_0::SimdMisc       885894      9.39%     69.15% # Number of instructions issued per FU type, per thread (Count)
system.cpu.statIssuedInstType_0::SimdMult            0      0.00%     69.15% # Number of instructions issued per FU type, per thread (Count)
system.cpu.statIssuedInstType_0::SimdMultAcc            0      0.00%     69.15% # Number of instructions issued per FU type, per thread (Count)
system.cpu.statIssuedInstType_0::SimdShift            0      0.00%     69.15% # Number of instructions issued per FU type, per thread (Count)
system.cpu.statIssuedInstType_0::SimdShiftAcc            0      0.00%     69.15% # Number of instructions issued per FU type, per thread (Count)
system.cpu.statIssuedInstType_0::SimdDiv            0      0.00%     69.15% # Number of instructions issued per FU type, per thread (Count)
system.cpu.statIssuedInstType_0::SimdSqrt            0      0.00%     69.15% # Number of instructions issued per FU type, per thread (Count)
system.cpu.statIssuedInstType_0::SimdFloatAdd            0      0.00%     69.15% # Number of instructions issued per FU type, per thread (Count)
system.cpu.statIssuedInstType_0::SimdFloatAlu            0      0.00%     69.15% # Number of instructions issued per FU type, per thread (Count)
system.cpu.statIssuedInstType_0::SimdFloatCmp            0      0.00%     69.15% # Number of instructions issued per FU type, per thread (Count)
system.cpu.statIssuedInstType_0::SimdFloatCvt            0      0.00%     69.15% # Number of instructions issued per FU type, per thread (Count)
system.cpu.statIssuedInstType_0::SimdFloatDiv            0      0.00%     69.15% # Number of instructions issued per FU type, per thread (Count)
system.cpu.statIssuedInstType_0::SimdFloatMisc            0      0.00%     69.15% # Number of instructions issued per FU type, per thread (Count)
system.cpu.statIssuedInstType_0::SimdFloatMult            0      0.00%     69.15% # Number of instructions issued per FU type, per thread (Count)
system.cpu.statIssuedInstType_0::SimdFloatMultAcc            0      0.00%     69.15% # Number of instructions issued per FU type, per thread (Count)
system.cpu.statIssuedInstType_0::SimdFloatSqrt            0      0.00%     69.15% # Number of instructions issued per FU type, per thread (Count)
system.cpu.statIssuedInstType_0::SimdReduceAdd            0      0.00%     69.15% # Number of instructions issued per FU type, per thread (Count)
system.cpu.statIssuedInstType_0::SimdReduceAlu            0      0.00%     69.15% # Number of instructions issued per FU type, per thread (Count)
system.cpu.statIssuedInstType_0::SimdReduceCmp            0      0.00%     69.15% # Number of instructions issued per FU type, per thread (Count)
system.cpu.statIssuedInstType_0::SimdFloatReduceAdd            0      0.00%     69.15% # Number of instructions issued per FU type, per thread (Count)
system.cpu.statIssuedInstType_0::SimdFloatReduceCmp            0      0.00%     69.15% # Number of instructions issued per FU type, per thread (Count)
system.cpu.statIssuedInstType_0::SimdAes            0      0.00%     69.15% # Number of instructions issued per FU type, per thread (Count)
system.cpu.statIssuedInstType_0::SimdAesMix            0      0.00%     69.15% # Number of instructions issued per FU type, per thread (Count)
system.cpu.statIssuedInstType_0::SimdSha1Hash            0      0.00%     69.15% # Number of instructions issued per FU type, per thread (Count)
system.cpu.statIssuedInstType_0::SimdSha1Hash2            0      0.00%     69.15% # Number of instructions issued per FU type, per thread (Count)
system.cpu.statIssuedInstType_0::SimdSha256Hash            0      0.00%     69.15% # Number of instructions issued per FU type, per thread (Count)
system.cpu.statIssuedInstType_0::SimdSha256Hash2            0      0.00%     69.15% # Number of instructions issued per FU type, per thread (Count)
system.cpu.statIssuedInstType_0::SimdShaSigma2            0      0.00%     69.15% # Number of instructions issued per FU type, per thread (Count)
system.cpu.statIssuedInstType_0::SimdShaSigma3            0      0.00%     69.15% # Number of instructions issued per FU type, per thread (Count)
system.cpu.statIssuedInstType_0::SimdPredAlu            0      0.00%     69.15% # Number of instructions issued per FU type, per thread (Count)
system.cpu.statIssuedInstType_0::MemRead      1843561     19.54%     88.69% # Number of instructions issued per FU type, per thread (Count)
system.cpu.statIssuedInstType_0::MemWrite      1067219     11.31%    100.00% # Number of instructions issued per FU type, per thread (Count)
system.cpu.statIssuedInstType_0::FloatMemRead            0      0.00%    100.00% # Number of instructions issued per FU type, per thread (Count)
system.cpu.statIssuedInstType_0::FloatMemWrite            0      0.00%    100.00% # Number of instructions issued per FU type, per thread (Count)
system.cpu.statIssuedInstType_0::IprAccess            0      0.00%    100.00% # Number of instructions issued per FU type, per thread (Count)
system.cpu.statIssuedInstType_0::InstPrefetch            0      0.00%    100.00% # Number of instructions issued per FU type, per thread (Count)
system.cpu.statIssuedInstType_0::total        9435399                       # Number of instructions issued per FU type, per thread (Count)
system.cpu.issueRate                         2.313079                       # Inst issue rate ((Count/Cycle))
system.cpu.fuBusy                              653702                       # FU busy when requested (Count)
system.cpu.fuBusyRate                        0.069282                       # FU busy rate (busy events/executed inst) ((Count/Count))
system.cpu.intInstQueueReads                  8152844                       # Number of integer instruction queue reads (Count)
system.cpu.intInstQueueWrites                 2058452                       # Number of integer instruction queue writes (Count)
system.cpu.intInstQueueWakeupAccesses         2040013                       # Number of integer instruction queue wakeup accesses (Count)
system.cpu.fpInstQueueReads                         0                       # Number of floating instruction queue reads (Count)
system.cpu.fpInstQueueWrites                        0                       # Number of floating instruction queue writes (Count)
system.cpu.fpInstQueueWakeupAccesses                0                       # Number of floating instruction queue wakeup accesses (Count)
system.cpu.vecInstQueueReads                 15427525                       # Number of vector instruction queue reads (Count)
system.cpu.vecInstQueueWrites                 7342402                       # Number of vector instruction queue writes (Count)
system.cpu.vecInstQueueWakeupAccesses         7298232                       # Number of vector instruction queue wakeup accesses (Count)
system.cpu.intAluAccesses                     2054675                       # Number of integer alu accesses (Count)
system.cpu.fpAluAccesses                            0                       # Number of floating point alu accesses (Count)
system.cpu.vecAluAccesses                     7333671                       # Number of vector alu accesses (Count)
system.cpu.numInsts                           9434017                       # Number of executed instructions (Count)
system.cpu.numLoadInsts                       1842701                       # Number of load instructions executed (Count)
system.cpu.numSquashedInsts                      1382                       # Number of squashed instructions skipped in execute (Count)
system.cpu.numSwp                                   0                       # Number of swp insts executed (Count)
system.cpu.numNop                                 303                       # Number of nop insts executed (Count)
system.cpu.numRefs                            2909860                       # Number of memory reference insts executed (Count)
system.cpu.numBranches                          11522                       # Number of branches executed (Count)
system.cpu.numStoreInsts                      1067159                       # Number of stores executed (Count)
system.cpu.numRate                           2.312740                       # Inst execution rate ((Count/Cycle))
system.cpu.timesIdled                             214                       # Number of times that the entire CPU went into an idle state and unscheduled itself (Count)
system.cpu.idleCycles                           23391                       # Total number of cycles that the CPU has spent unscheduled due to idling (Cycle)
system.cpu.committedInsts                     7138426                       # Number of Instructions Simulated (Count)
system.cpu.committedOps                       9319619                       # Number of Ops (including micro ops) Simulated (Count)
system.cpu.cpi                               0.571436                       # CPI: Cycles Per Instruction ((Cycle/Count))
system.cpu.totalCpi                          0.571436                       # CPI: Total CPI of All Threads ((Cycle/Count))
system.cpu.ipc                               1.749978                       # IPC: Instructions Per Cycle ((Count/Cycle))
system.cpu.totalIpc                          1.749978                       # IPC: Total IPC of All Threads ((Count/Cycle))
system.cpu.intRegfileReads                    6128361                       # Number of integer regfile reads (Count)
system.cpu.intRegfileWrites                   2877927                       # Number of integer regfile writes (Count)
system.cpu.vecRegfileReads                   15588951                       # number of vector regfile reads (Count)
system.cpu.ccRegfileReads                       28698                       # number of cc regfile reads (Count)
system.cpu.ccRegfileWrites                      28770                       # number of cc regfile writes (Count)
system.cpu.miscRegfileReads                  13395158                       # number of misc regfile reads (Count)
system.cpu.miscRegfileWrites                      144                       # number of misc regfile writes (Count)
system.cpu.MemDepUnit__0.insertedLoads        1751036                       # Number of loads inserted to the mem dependence unit. (Count)
system.cpu.MemDepUnit__0.insertedStores       1070241                       # Number of stores inserted to the mem dependence unit. (Count)
system.cpu.MemDepUnit__0.conflictingLoads        10594                       # Number of conflicting loads. (Count)
system.cpu.MemDepUnit__0.conflictingStores        11016                       # Number of conflicting stores. (Count)
system.cpu.MemDepUnit__1.insertedLoads              0                       # Number of loads inserted to the mem dependence unit. (Count)
system.cpu.MemDepUnit__1.insertedStores             0                       # Number of stores inserted to the mem dependence unit. (Count)
system.cpu.MemDepUnit__1.conflictingLoads            0                       # Number of conflicting loads. (Count)
system.cpu.MemDepUnit__1.conflictingStores            0                       # Number of conflicting stores. (Count)
system.cpu.MemDepUnit__2.insertedLoads              0                       # Number of loads inserted to the mem dependence unit. (Count)
system.cpu.MemDepUnit__2.insertedStores             0                       # Number of stores inserted to the mem dependence unit. (Count)
system.cpu.MemDepUnit__2.conflictingLoads            0                       # Number of conflicting loads. (Count)
system.cpu.MemDepUnit__2.conflictingStores            0                       # Number of conflicting stores. (Count)
system.cpu.MemDepUnit__3.insertedLoads              0                       # Number of loads inserted to the mem dependence unit. (Count)
system.cpu.MemDepUnit__3.insertedStores             0                       # Number of stores inserted to the mem dependence unit. (Count)
system.cpu.MemDepUnit__3.conflictingLoads            0                       # Number of conflicting loads. (Count)
system.cpu.MemDepUnit__3.conflictingStores            0                       # Number of conflicting stores. (Count)
system.cpu.branchPred.lookups                   13440                       # Number of BP lookups (Count)
system.cpu.branchPred.condPredicted             11945                       # Number of conditional branches predicted (Count)
system.cpu.branchPred.condIncorrect               576                       # Number of conditional branches incorrect (Count)
system.cpu.branchPred.BTBLookups                10481                       # Number of BTB lookups (Count)
system.cpu.branchPred.BTBUpdates                  212                       # Number of BTB updates (Count)
system.cpu.branchPred.BTBHits                   10179                       # Number of BTB hits (Count)
system.cpu.branchPred.BTBHitRatio            0.971186                       # BTB Hit Ratio (Ratio)
system.cpu.branchPred.RASUsed                     392                       # Number of times the RAS was used to get a target. (Count)
system.cpu.branchPred.RASIncorrect                 10                       # Number of incorrect RAS predictions. (Count)
system.cpu.branchPred.indirectLookups             593                       # Number of indirect predictor lookups. (Count)
system.cpu.branchPred.indirectHits                 17                       # Number of indirect target hits. (Count)
system.cpu.branchPred.indirectMisses              576                       # Number of indirect misses. (Count)
system.cpu.branchPred.indirectMispredicted           81                       # Number of mispredicted indirect branches. (Count)
system.cpu.commit.commitSquashedInsts           33935                       # The number of squashed insts skipped by commit (Count)
system.cpu.commit.commitNonSpecStalls             145                       # The number of times commit has been forced to stall to communicate backwards (Count)
system.cpu.commit.branchMispredicts               974                       # The number of times a branch was mispredicted (Count)
system.cpu.commit.numCommittedDist::samples      4050616                       # Number of insts commited each cycle (Count)
system.cpu.commit.numCommittedDist::mean     2.300850                       # Number of insts commited each cycle (Count)
system.cpu.commit.numCommittedDist::stdev     3.394943                       # Number of insts commited each cycle (Count)
system.cpu.commit.numCommittedDist::underflows            0      0.00%      0.00% # Number of insts commited each cycle (Count)
system.cpu.commit.numCommittedDist::0         2576092     63.60%     63.60% # Number of insts commited each cycle (Count)
system.cpu.commit.numCommittedDist::1          112365      2.77%     66.37% # Number of insts commited each cycle (Count)
system.cpu.commit.numCommittedDist::2          117416      2.90%     69.27% # Number of insts commited each cycle (Count)
system.cpu.commit.numCommittedDist::3           63156      1.56%     70.83% # Number of insts commited each cycle (Count)
system.cpu.commit.numCommittedDist::4           71885      1.77%     72.60% # Number of insts commited each cycle (Count)
system.cpu.commit.numCommittedDist::5           76063      1.88%     74.48% # Number of insts commited each cycle (Count)
system.cpu.commit.numCommittedDist::6           40521      1.00%     75.48% # Number of insts commited each cycle (Count)
system.cpu.commit.numCommittedDist::7           72731      1.80%     77.28% # Number of insts commited each cycle (Count)
system.cpu.commit.numCommittedDist::8          920387     22.72%    100.00% # Number of insts commited each cycle (Count)
system.cpu.commit.numCommittedDist::overflows            0      0.00%    100.00% # Number of insts commited each cycle (Count)
system.cpu.commit.numCommittedDist::min_value            0                       # Number of insts commited each cycle (Count)
system.cpu.commit.numCommittedDist::max_value            8                       # Number of insts commited each cycle (Count)
system.cpu.commit.numCommittedDist::total      4050616                       # Number of insts commited each cycle (Count)
system.cpu.commit.instsCommitted              7138666                       # Number of instructions committed (Count)
system.cpu.commit.opsCommitted                9319859                       # Number of ops (including micro ops) committed (Count)
system.cpu.commit.memRefs                     2807068                       # Number of memory references committed (Count)
system.cpu.commit.loads                       1740777                       # Number of loads committed (Count)
system.cpu.commit.amos                             72                       # Number of atomic instructions committed (Count)
system.cpu.commit.membars                          72                       # Number of memory barriers committed (Count)
system.cpu.commit.branches                      10733                       # Number of branches committed (Count)
system.cpu.commit.vectorInstructions          7287390                       # Number of committed Vector instructions. (Count)
system.cpu.commit.floating                          0                       # Number of committed floating point instructions. (Count)
system.cpu.commit.integer                     5589850                       # Number of committed integer instructions. (Count)
system.cpu.commit.functionCalls                   186                       # Number of function calls committed. (Count)
system.cpu.commit.committedInstType_0::No_OpClass       698176      7.49%      7.49% # Class of committed instruction (Count)
system.cpu.commit.committedInstType_0::IntAlu      1907104     20.46%     27.95% # Class of committed instruction (Count)
system.cpu.commit.committedInstType_0::IntMult           28      0.00%     27.95% # Class of committed instruction (Count)
system.cpu.commit.committedInstType_0::IntDiv            9      0.00%     27.95% # Class of committed instruction (Count)
system.cpu.commit.committedInstType_0::FloatAdd            0      0.00%     27.95% # Class of committed instruction (Count)
system.cpu.commit.committedInstType_0::FloatCmp            0      0.00%     27.95% # Class of committed instruction (Count)
system.cpu.commit.committedInstType_0::FloatCvt            0      0.00%     27.95% # Class of committed instruction (Count)
system.cpu.commit.committedInstType_0::FloatMult            0      0.00%     27.95% # Class of committed instruction (Count)
system.cpu.commit.committedInstType_0::FloatMultAcc            0      0.00%     27.95% # Class of committed instruction (Count)
system.cpu.commit.committedInstType_0::FloatDiv            0      0.00%     27.95% # Class of committed instruction (Count)
system.cpu.commit.committedInstType_0::FloatMisc            0      0.00%     27.95% # Class of committed instruction (Count)
system.cpu.commit.committedInstType_0::FloatSqrt            0      0.00%     27.95% # Class of committed instruction (Count)
system.cpu.commit.committedInstType_0::SimdAdd      1157632     12.42%     40.38% # Class of committed instruction (Count)
system.cpu.commit.committedInstType_0::SimdAddAcc            0      0.00%     40.38% # Class of committed instruction (Count)
system.cpu.commit.committedInstType_0::SimdAlu      1864582     20.01%     60.38% # Class of committed instruction (Count)
system.cpu.commit.committedInstType_0::SimdCmp            0      0.00%     60.38% # Class of committed instruction (Count)
system.cpu.commit.committedInstType_0::SimdCvt            0      0.00%     60.38% # Class of committed instruction (Count)
system.cpu.commit.committedInstType_0::SimdMisc       885260      9.50%     69.88% # Class of committed instruction (Count)
system.cpu.commit.committedInstType_0::SimdMult            0      0.00%     69.88% # Class of committed instruction (Count)
system.cpu.commit.committedInstType_0::SimdMultAcc            0      0.00%     69.88% # Class of committed instruction (Count)
system.cpu.commit.committedInstType_0::SimdShift            0      0.00%     69.88% # Class of committed instruction (Count)
system.cpu.commit.committedInstType_0::SimdShiftAcc            0      0.00%     69.88% # Class of committed instruction (Count)
system.cpu.commit.committedInstType_0::SimdDiv            0      0.00%     69.88% # Class of committed instruction (Count)
system.cpu.commit.committedInstType_0::SimdSqrt            0      0.00%     69.88% # Class of committed instruction (Count)
system.cpu.commit.committedInstType_0::SimdFloatAdd            0      0.00%     69.88% # Class of committed instruction (Count)
system.cpu.commit.committedInstType_0::SimdFloatAlu            0      0.00%     69.88% # Class of committed instruction (Count)
system.cpu.commit.committedInstType_0::SimdFloatCmp            0      0.00%     69.88% # Class of committed instruction (Count)
system.cpu.commit.committedInstType_0::SimdFloatCvt            0      0.00%     69.88% # Class of committed instruction (Count)
system.cpu.commit.committedInstType_0::SimdFloatDiv            0      0.00%     69.88% # Class of committed instruction (Count)
system.cpu.commit.committedInstType_0::SimdFloatMisc            0      0.00%     69.88% # Class of committed instruction (Count)
system.cpu.commit.committedInstType_0::SimdFloatMult            0      0.00%     69.88% # Class of committed instruction (Count)
system.cpu.commit.committedInstType_0::SimdFloatMultAcc            0      0.00%     69.88% # Class of committed instruction (Count)
system.cpu.commit.committedInstType_0::SimdFloatSqrt            0      0.00%     69.88% # Class of committed instruction (Count)
system.cpu.commit.committedInstType_0::SimdReduceAdd            0      0.00%     69.88% # Class of committed instruction (Count)
system.cpu.commit.committedInstType_0::SimdReduceAlu            0      0.00%     69.88% # Class of committed instruction (Count)
system.cpu.commit.committedInstType_0::SimdReduceCmp            0      0.00%     69.88% # Class of committed instruction (Count)
system.cpu.commit.committedInstType_0::SimdFloatReduceAdd            0      0.00%     69.88% # Class of committed instruction (Count)
system.cpu.commit.committedInstType_0::SimdFloatReduceCmp            0      0.00%     69.88% # Class of committed instruction (Count)
system.cpu.commit.committedInstType_0::SimdAes            0      0.00%     69.88% # Class of committed instruction (Count)
system.cpu.commit.committedInstType_0::SimdAesMix            0      0.00%     69.88% # Class of committed instruction (Count)
system.cpu.commit.committedInstType_0::SimdSha1Hash            0      0.00%     69.88% # Class of committed instruction (Count)
system.cpu.commit.committedInstType_0::SimdSha1Hash2            0      0.00%     69.88% # Class of committed instruction (Count)
system.cpu.commit.committedInstType_0::SimdSha256Hash            0      0.00%     69.88% # Class of committed instruction (Count)
system.cpu.commit.committedInstType_0::SimdSha256Hash2            0      0.00%     69.88% # Class of committed instruction (Count)
system.cpu.commit.committedInstType_0::SimdShaSigma2            0      0.00%     69.88% # Class of committed instruction (Count)
system.cpu.commit.committedInstType_0::SimdShaSigma3            0      0.00%     69.88% # Class of committed instruction (Count)
system.cpu.commit.committedInstType_0::SimdPredAlu            0      0.00%     69.88% # Class of committed instruction (Count)
system.cpu.commit.committedInstType_0::MemRead      1740777     18.68%     88.56% # Class of committed instruction (Count)
system.cpu.commit.committedInstType_0::MemWrite      1066291     11.44%    100.00% # Class of committed instruction (Count)
system.cpu.commit.committedInstType_0::FloatMemRead            0      0.00%    100.00% # Class of committed instruction (Count)
system.cpu.commit.committedInstType_0::FloatMemWrite            0      0.00%    100.00% # Class of committed instruction (Count)
system.cpu.commit.committedInstType_0::IprAccess            0      0.00%    100.00% # Class of committed instruction (Count)
system.cpu.commit.committedInstType_0::InstPrefetch            0      0.00%    100.00% # Class of committed instruction (Count)
system.cpu.commit.committedInstType_0::total      9319859                       # Class of committed instruction (Count)
system.cpu.commit.commitEligibleSamples        920387                       # number cycles where commit BW limit reached (Cycle)
system.cpu.dcache.demandHits::cpu.data        2752476                       # number of demand (read+write) hits (Count)
system.cpu.dcache.demandHits::total           2752476                       # number of demand (read+write) hits (Count)
system.cpu.dcache.overallHits::cpu.data       2752476                       # number of overall hits (Count)
system.cpu.dcache.overallHits::total          2752476                       # number of overall hits (Count)
system.cpu.dcache.demandMisses::cpu.data        40608                       # number of demand (read+write) misses (Count)
system.cpu.dcache.demandMisses::total           40608                       # number of demand (read+write) misses (Count)
system.cpu.dcache.overallMisses::cpu.data        40608                       # number of overall misses (Count)
system.cpu.dcache.overallMisses::total          40608                       # number of overall misses (Count)
system.cpu.dcache.demandMissLatency::cpu.data   3264708500                       # number of demand (read+write) miss ticks (Tick)
system.cpu.dcache.demandMissLatency::total   3264708500                       # number of demand (read+write) miss ticks (Tick)
system.cpu.dcache.overallMissLatency::cpu.data   3264708500                       # number of overall miss ticks (Tick)
system.cpu.dcache.overallMissLatency::total   3264708500                       # number of overall miss ticks (Tick)
system.cpu.dcache.demandAccesses::cpu.data      2793084                       # number of demand (read+write) accesses (Count)
system.cpu.dcache.demandAccesses::total       2793084                       # number of demand (read+write) accesses (Count)
system.cpu.dcache.overallAccesses::cpu.data      2793084                       # number of overall (read+write) accesses (Count)
system.cpu.dcache.overallAccesses::total      2793084                       # number of overall (read+write) accesses (Count)
system.cpu.dcache.demandMissRate::cpu.data     0.014539                       # miss rate for demand accesses (Ratio)
system.cpu.dcache.demandMissRate::total      0.014539                       # miss rate for demand accesses (Ratio)
system.cpu.dcache.overallMissRate::cpu.data     0.014539                       # miss rate for overall accesses (Ratio)
system.cpu.dcache.overallMissRate::total     0.014539                       # miss rate for overall accesses (Ratio)
system.cpu.dcache.demandAvgMissLatency::cpu.data 80395.697892                       # average overall miss latency in ticks ((Tick/Count))
system.cpu.dcache.demandAvgMissLatency::total 80395.697892                       # average overall miss latency in ticks ((Tick/Count))
system.cpu.dcache.overallAvgMissLatency::cpu.data 80395.697892                       # average overall miss latency ((Tick/Count))
system.cpu.dcache.overallAvgMissLatency::total 80395.697892                       # average overall miss latency ((Tick/Count))
system.cpu.dcache.blockedCycles::no_mshrs         3533                       # number of cycles access was blocked (Cycle)
system.cpu.dcache.blockedCycles::no_targets           94                       # number of cycles access was blocked (Cycle)
system.cpu.dcache.blockedCauses::no_mshrs           67                       # number of times access was blocked (Count)
system.cpu.dcache.blockedCauses::no_targets            1                       # number of times access was blocked (Count)
system.cpu.dcache.avgBlocked::no_mshrs      52.731343                       # average number of cycles each access was blocked ((Cycle/Count))
system.cpu.dcache.avgBlocked::no_targets           94                       # average number of cycles each access was blocked ((Cycle/Count))
system.cpu.dcache.writebacks::writebacks         6588                       # number of writebacks (Count)
system.cpu.dcache.writebacks::total              6588                       # number of writebacks (Count)
system.cpu.dcache.demandMshrHits::cpu.data        17036                       # number of demand (read+write) MSHR hits (Count)
system.cpu.dcache.demandMshrHits::total         17036                       # number of demand (read+write) MSHR hits (Count)
system.cpu.dcache.overallMshrHits::cpu.data        17036                       # number of overall MSHR hits (Count)
system.cpu.dcache.overallMshrHits::total        17036                       # number of overall MSHR hits (Count)
system.cpu.dcache.demandMshrMisses::cpu.data        23572                       # number of demand (read+write) MSHR misses (Count)
system.cpu.dcache.demandMshrMisses::total        23572                       # number of demand (read+write) MSHR misses (Count)
system.cpu.dcache.overallMshrMisses::cpu.data        23572                       # number of overall MSHR misses (Count)
system.cpu.dcache.overallMshrMisses::total        23572                       # number of overall MSHR misses (Count)
system.cpu.dcache.demandMshrMissLatency::cpu.data   1884745500                       # number of demand (read+write) MSHR miss ticks (Tick)
system.cpu.dcache.demandMshrMissLatency::total   1884745500                       # number of demand (read+write) MSHR miss ticks (Tick)
system.cpu.dcache.overallMshrMissLatency::cpu.data   1884745500                       # number of overall MSHR miss ticks (Tick)
system.cpu.dcache.overallMshrMissLatency::total   1884745500                       # number of overall MSHR miss ticks (Tick)
system.cpu.dcache.demandMshrMissRate::cpu.data     0.008439                       # mshr miss ratio for demand accesses (Ratio)
system.cpu.dcache.demandMshrMissRate::total     0.008439                       # mshr miss ratio for demand accesses (Ratio)
system.cpu.dcache.overallMshrMissRate::cpu.data     0.008439                       # mshr miss ratio for overall accesses (Ratio)
system.cpu.dcache.overallMshrMissRate::total     0.008439                       # mshr miss ratio for overall accesses (Ratio)
system.cpu.dcache.demandAvgMshrMissLatency::cpu.data 79956.961649                       # average overall mshr miss latency ((Tick/Count))
system.cpu.dcache.demandAvgMshrMissLatency::total 79956.961649                       # average overall mshr miss latency ((Tick/Count))
system.cpu.dcache.overallAvgMshrMissLatency::cpu.data 79956.961649                       # average overall mshr miss latency ((Tick/Count))
system.cpu.dcache.overallAvgMshrMissLatency::total 79956.961649                       # average overall mshr miss latency ((Tick/Count))
system.cpu.dcache.replacements                  23574                       # number of replacements (Count)
system.cpu.dcache.ReadReq.hits::cpu.data      1686271                       # number of ReadReq hits (Count)
system.cpu.dcache.ReadReq.hits::total         1686271                       # number of ReadReq hits (Count)
system.cpu.dcache.ReadReq.misses::cpu.data        40594                       # number of ReadReq misses (Count)
system.cpu.dcache.ReadReq.misses::total         40594                       # number of ReadReq misses (Count)
system.cpu.dcache.ReadReq.missLatency::cpu.data   3263398500                       # number of ReadReq miss ticks (Tick)
system.cpu.dcache.ReadReq.missLatency::total   3263398500                       # number of ReadReq miss ticks (Tick)
system.cpu.dcache.ReadReq.accesses::cpu.data      1726865                       # number of ReadReq accesses(hits+misses) (Count)
system.cpu.dcache.ReadReq.accesses::total      1726865                       # number of ReadReq accesses(hits+misses) (Count)
system.cpu.dcache.ReadReq.missRate::cpu.data     0.023507                       # miss rate for ReadReq accesses (Ratio)
system.cpu.dcache.ReadReq.missRate::total     0.023507                       # miss rate for ReadReq accesses (Ratio)
system.cpu.dcache.ReadReq.avgMissLatency::cpu.data 80391.153865                       # average ReadReq miss latency ((Tick/Count))
system.cpu.dcache.ReadReq.avgMissLatency::total 80391.153865                       # average ReadReq miss latency ((Tick/Count))
system.cpu.dcache.ReadReq.mshrHits::cpu.data        17029                       # number of ReadReq MSHR hits (Count)
system.cpu.dcache.ReadReq.mshrHits::total        17029                       # number of ReadReq MSHR hits (Count)
system.cpu.dcache.ReadReq.mshrMisses::cpu.data        23565                       # number of ReadReq MSHR misses (Count)
system.cpu.dcache.ReadReq.mshrMisses::total        23565                       # number of ReadReq MSHR misses (Count)
system.cpu.dcache.ReadReq.mshrMissLatency::cpu.data   1884144500                       # number of ReadReq MSHR miss ticks (Tick)
system.cpu.dcache.ReadReq.mshrMissLatency::total   1884144500                       # number of ReadReq MSHR miss ticks (Tick)
system.cpu.dcache.ReadReq.mshrMissRate::cpu.data     0.013646                       # mshr miss rate for ReadReq accesses (Ratio)
system.cpu.dcache.ReadReq.mshrMissRate::total     0.013646                       # mshr miss rate for ReadReq accesses (Ratio)
system.cpu.dcache.ReadReq.avgMshrMissLatency::cpu.data 79955.208996                       # average ReadReq mshr miss latency ((Tick/Count))
system.cpu.dcache.ReadReq.avgMshrMissLatency::total 79955.208996                       # average ReadReq mshr miss latency ((Tick/Count))
system.cpu.dcache.SwapReq.hits::cpu.data           70                       # number of SwapReq hits (Count)
system.cpu.dcache.SwapReq.hits::total              70                       # number of SwapReq hits (Count)
system.cpu.dcache.SwapReq.misses::cpu.data            2                       # number of SwapReq misses (Count)
system.cpu.dcache.SwapReq.misses::total             2                       # number of SwapReq misses (Count)
system.cpu.dcache.SwapReq.missLatency::cpu.data       186000                       # number of SwapReq miss ticks (Tick)
system.cpu.dcache.SwapReq.missLatency::total       186000                       # number of SwapReq miss ticks (Tick)
system.cpu.dcache.SwapReq.accesses::cpu.data           72                       # number of SwapReq accesses(hits+misses) (Count)
system.cpu.dcache.SwapReq.accesses::total           72                       # number of SwapReq accesses(hits+misses) (Count)
system.cpu.dcache.SwapReq.missRate::cpu.data     0.027778                       # miss rate for SwapReq accesses (Ratio)
system.cpu.dcache.SwapReq.missRate::total     0.027778                       # miss rate for SwapReq accesses (Ratio)
system.cpu.dcache.SwapReq.avgMissLatency::cpu.data        93000                       # average SwapReq miss latency ((Tick/Count))
system.cpu.dcache.SwapReq.avgMissLatency::total        93000                       # average SwapReq miss latency ((Tick/Count))
system.cpu.dcache.SwapReq.mshrMisses::cpu.data            2                       # number of SwapReq MSHR misses (Count)
system.cpu.dcache.SwapReq.mshrMisses::total            2                       # number of SwapReq MSHR misses (Count)
system.cpu.dcache.SwapReq.mshrMissLatency::cpu.data       184000                       # number of SwapReq MSHR miss ticks (Tick)
system.cpu.dcache.SwapReq.mshrMissLatency::total       184000                       # number of SwapReq MSHR miss ticks (Tick)
system.cpu.dcache.SwapReq.mshrMissRate::cpu.data     0.027778                       # mshr miss rate for SwapReq accesses (Ratio)
system.cpu.dcache.SwapReq.mshrMissRate::total     0.027778                       # mshr miss rate for SwapReq accesses (Ratio)
system.cpu.dcache.SwapReq.avgMshrMissLatency::cpu.data        92000                       # average SwapReq mshr miss latency ((Tick/Count))
system.cpu.dcache.SwapReq.avgMshrMissLatency::total        92000                       # average SwapReq mshr miss latency ((Tick/Count))
system.cpu.dcache.WriteReq.hits::cpu.data      1066205                       # number of WriteReq hits (Count)
system.cpu.dcache.WriteReq.hits::total        1066205                       # number of WriteReq hits (Count)
system.cpu.dcache.WriteReq.misses::cpu.data           14                       # number of WriteReq misses (Count)
system.cpu.dcache.WriteReq.misses::total           14                       # number of WriteReq misses (Count)
system.cpu.dcache.WriteReq.missLatency::cpu.data      1310000                       # number of WriteReq miss ticks (Tick)
system.cpu.dcache.WriteReq.missLatency::total      1310000                       # number of WriteReq miss ticks (Tick)
system.cpu.dcache.WriteReq.accesses::cpu.data      1066219                       # number of WriteReq accesses(hits+misses) (Count)
system.cpu.dcache.WriteReq.accesses::total      1066219                       # number of WriteReq accesses(hits+misses) (Count)
system.cpu.dcache.WriteReq.missRate::cpu.data     0.000013                       # miss rate for WriteReq accesses (Ratio)
system.cpu.dcache.WriteReq.missRate::total     0.000013                       # miss rate for WriteReq accesses (Ratio)
system.cpu.dcache.WriteReq.avgMissLatency::cpu.data 93571.428571                       # average WriteReq miss latency ((Tick/Count))
system.cpu.dcache.WriteReq.avgMissLatency::total 93571.428571                       # average WriteReq miss latency ((Tick/Count))
system.cpu.dcache.WriteReq.mshrHits::cpu.data            7                       # number of WriteReq MSHR hits (Count)
system.cpu.dcache.WriteReq.mshrHits::total            7                       # number of WriteReq MSHR hits (Count)
system.cpu.dcache.WriteReq.mshrMisses::cpu.data            7                       # number of WriteReq MSHR misses (Count)
system.cpu.dcache.WriteReq.mshrMisses::total            7                       # number of WriteReq MSHR misses (Count)
system.cpu.dcache.WriteReq.mshrMissLatency::cpu.data       601000                       # number of WriteReq MSHR miss ticks (Tick)
system.cpu.dcache.WriteReq.mshrMissLatency::total       601000                       # number of WriteReq MSHR miss ticks (Tick)
system.cpu.dcache.WriteReq.mshrMissRate::cpu.data     0.000007                       # mshr miss rate for WriteReq accesses (Ratio)
system.cpu.dcache.WriteReq.mshrMissRate::total     0.000007                       # mshr miss rate for WriteReq accesses (Ratio)
system.cpu.dcache.WriteReq.avgMshrMissLatency::cpu.data 85857.142857                       # average WriteReq mshr miss latency ((Tick/Count))
system.cpu.dcache.WriteReq.avgMshrMissLatency::total 85857.142857                       # average WriteReq mshr miss latency ((Tick/Count))
system.cpu.dcache.power_state.pwrStateResidencyTicks::UNDEFINED   3035785000                       # Cumulative time (in ticks) in various power states (Tick)
system.cpu.dcache.tags.tagsInUse                 1024                       # Average ticks per tags in use ((Tick/Count))
system.cpu.dcache.tags.totalRefs              2832441                       # Total number of references to valid blocks. (Count)
system.cpu.dcache.tags.sampledRefs              24598                       # Sample count of references to valid blocks. (Count)
system.cpu.dcache.tags.avgRefs             115.149240                       # Average number of references to valid blocks. ((Count/Count))
system.cpu.dcache.tags.warmupTick                   0                       # The tick when the warmup percentage was hit. (Tick)
system.cpu.dcache.tags.occupancies::cpu.data         1024                       # Average occupied blocks per tick, per requestor ((Count/Tick))
system.cpu.dcache.tags.avgOccs::cpu.data            1                       # Average percentage of cache occupancy ((Ratio/Tick))
system.cpu.dcache.tags.avgOccs::total               1                       # Average percentage of cache occupancy ((Ratio/Tick))
system.cpu.dcache.tags.occupanciesTaskId::1024         1024                       # Occupied blocks per task id (Count)
system.cpu.dcache.tags.ageTaskId_1024::0           98                       # Occupied blocks per task id, per block age (Count)
system.cpu.dcache.tags.ageTaskId_1024::1          832                       # Occupied blocks per task id, per block age (Count)
system.cpu.dcache.tags.ageTaskId_1024::2           59                       # Occupied blocks per task id, per block age (Count)
system.cpu.dcache.tags.ageTaskId_1024::3           35                       # Occupied blocks per task id, per block age (Count)
system.cpu.dcache.tags.ratioOccsTaskId::1024            1                       # Ratio of occupied blocks and all blocks, per task id (Ratio)
system.cpu.dcache.tags.tagAccesses           11196198                       # Number of tag accesses (Count)
system.cpu.dcache.tags.dataAccesses          11196198                       # Number of data accesses (Count)
system.cpu.dcache.tags.power_state.pwrStateResidencyTicks::UNDEFINED   3035785000                       # Cumulative time (in ticks) in various power states (Tick)
system.cpu.decode.idleCycles                   402800                       # Number of cycles decode is idle (Cycle)
system.cpu.decode.blockedCycles               2328990                       # Number of cycles decode is blocked (Cycle)
system.cpu.decode.runCycles                   1227061                       # Number of cycles decode is running (Cycle)
system.cpu.decode.unblockCycles                 95645                       # Number of cycles decode is unblocking (Cycle)
system.cpu.decode.squashCycles                   1265                       # Number of cycles decode is squashing (Cycle)
system.cpu.decode.branchResolved                10091                       # Number of times decode resolved a branch (Count)
system.cpu.decode.branchMispred                    75                       # Number of times decode detected a branch misprediction (Count)
system.cpu.decode.decodedInsts                9366853                       # Number of instructions handled by decode (Count)
system.cpu.decode.squashedInsts                   264                       # Number of squashed instructions handled by decode (Count)
system.cpu.fetch.icacheStallCycles             463318                       # Number of cycles fetch is stalled on an Icache miss (Cycle)
system.cpu.fetch.insts                        7183668                       # Number of instructions fetch has processed (Count)
system.cpu.fetch.branches                       13440                       # Number of branches that fetch encountered (Count)
system.cpu.fetch.predictedBranches              10588                       # Number of branches that fetch has predicted taken (Count)
system.cpu.fetch.cycles                       3587605                       # Number of cycles fetch has run and was not squashing or blocked (Cycle)
system.cpu.fetch.squashCycles                    2672                       # Number of cycles fetch has spent squashing (Cycle)
system.cpu.fetch.miscStallCycles                  475                       # Number of cycles fetch has spent waiting on interrupts, or bad addresses, or out of MSHRs (Cycle)
system.cpu.fetch.pendingTrapStallCycles          3027                       # Number of stall cycles due to pending traps (Cycle)
system.cpu.fetch.cacheLines                    456869                       # Number of cache lines fetched (Count)
system.cpu.fetch.icacheSquashes                   196                       # Number of outstanding Icache misses that were squashed (Count)
system.cpu.fetch.nisnDist::samples            4055761                       # Number of instructions fetched each cycle (Total) (Count)
system.cpu.fetch.nisnDist::mean              2.313357                       # Number of instructions fetched each cycle (Total) (Count)
system.cpu.fetch.nisnDist::stdev             3.488181                       # Number of instructions fetched each cycle (Total) (Count)
system.cpu.fetch.nisnDist::underflows               0      0.00%      0.00% # Number of instructions fetched each cycle (Total) (Count)
system.cpu.fetch.nisnDist::0                  2681279     66.11%     66.11% # Number of instructions fetched each cycle (Total) (Count)
system.cpu.fetch.nisnDist::1                    98635      2.43%     68.54% # Number of instructions fetched each cycle (Total) (Count)
system.cpu.fetch.nisnDist::2                    55908      1.38%     69.92% # Number of instructions fetched each cycle (Total) (Count)
system.cpu.fetch.nisnDist::3                    32906      0.81%     70.73% # Number of instructions fetched each cycle (Total) (Count)
system.cpu.fetch.nisnDist::4                    15997      0.39%     71.13% # Number of instructions fetched each cycle (Total) (Count)
system.cpu.fetch.nisnDist::5                    89900      2.22%     73.34% # Number of instructions fetched each cycle (Total) (Count)
system.cpu.fetch.nisnDist::6                    39098      0.96%     74.31% # Number of instructions fetched each cycle (Total) (Count)
system.cpu.fetch.nisnDist::7                    11124      0.27%     74.58% # Number of instructions fetched each cycle (Total) (Count)
system.cpu.fetch.nisnDist::8                  1030914     25.42%    100.00% # Number of instructions fetched each cycle (Total) (Count)
system.cpu.fetch.nisnDist::overflows                0      0.00%    100.00% # Number of instructions fetched each cycle (Total) (Count)
system.cpu.fetch.nisnDist::min_value                0                       # Number of instructions fetched each cycle (Total) (Count)
system.cpu.fetch.nisnDist::max_value                8                       # Number of instructions fetched each cycle (Total) (Count)
system.cpu.fetch.nisnDist::total              4055761                       # Number of instructions fetched each cycle (Total) (Count)
system.cpu.fetch.branchRate                  0.003295                       # Number of branch fetches per cycle (Ratio)
system.cpu.fetch.rate                        1.761069                       # Number of inst fetches per cycle ((Count/Cycle))
system.cpu.icache.demandHits::cpu.inst         456551                       # number of demand (read+write) hits (Count)
system.cpu.icache.demandHits::total            456551                       # number of demand (read+write) hits (Count)
system.cpu.icache.overallHits::cpu.inst        456551                       # number of overall hits (Count)
system.cpu.icache.overallHits::total           456551                       # number of overall hits (Count)
system.cpu.icache.demandMisses::cpu.inst          318                       # number of demand (read+write) misses (Count)
system.cpu.icache.demandMisses::total             318                       # number of demand (read+write) misses (Count)
system.cpu.icache.overallMisses::cpu.inst          318                       # number of overall misses (Count)
system.cpu.icache.overallMisses::total            318                       # number of overall misses (Count)
system.cpu.icache.demandMissLatency::cpu.inst     24248000                       # number of demand (read+write) miss ticks (Tick)
system.cpu.icache.demandMissLatency::total     24248000                       # number of demand (read+write) miss ticks (Tick)
system.cpu.icache.overallMissLatency::cpu.inst     24248000                       # number of overall miss ticks (Tick)
system.cpu.icache.overallMissLatency::total     24248000                       # number of overall miss ticks (Tick)
system.cpu.icache.demandAccesses::cpu.inst       456869                       # number of demand (read+write) accesses (Count)
system.cpu.icache.demandAccesses::total        456869                       # number of demand (read+write) accesses (Count)
system.cpu.icache.overallAccesses::cpu.inst       456869                       # number of overall (read+write) accesses (Count)
system.cpu.icache.overallAccesses::total       456869                       # number of overall (read+write) accesses (Count)
system.cpu.icache.demandMissRate::cpu.inst     0.000696                       # miss rate for demand accesses (Ratio)
system.cpu.icache.demandMissRate::total      0.000696                       # miss rate for demand accesses (Ratio)
system.cpu.icache.overallMissRate::cpu.inst     0.000696                       # miss rate for overall accesses (Ratio)
system.cpu.icache.overallMissRate::total     0.000696                       # miss rate for overall accesses (Ratio)
system.cpu.icache.demandAvgMissLatency::cpu.inst 76251.572327                       # average overall miss latency in ticks ((Tick/Count))
system.cpu.icache.demandAvgMissLatency::total 76251.572327                       # average overall miss latency in ticks ((Tick/Count))
system.cpu.icache.overallAvgMissLatency::cpu.inst 76251.572327                       # average overall miss latency ((Tick/Count))
system.cpu.icache.overallAvgMissLatency::total 76251.572327                       # average overall miss latency ((Tick/Count))
system.cpu.icache.blockedCycles::no_mshrs          135                       # number of cycles access was blocked (Cycle)
system.cpu.icache.blockedCycles::no_targets            0                       # number of cycles access was blocked (Cycle)
system.cpu.icache.blockedCauses::no_mshrs            2                       # number of times access was blocked (Count)
system.cpu.icache.blockedCauses::no_targets            0                       # number of times access was blocked (Count)
system.cpu.icache.avgBlocked::no_mshrs      67.500000                       # average number of cycles each access was blocked ((Cycle/Count))
system.cpu.icache.avgBlocked::no_targets          nan                       # average number of cycles each access was blocked ((Cycle/Count))
system.cpu.icache.writebacks::writebacks          263                       # number of writebacks (Count)
system.cpu.icache.writebacks::total               263                       # number of writebacks (Count)
system.cpu.icache.demandMshrHits::cpu.inst           55                       # number of demand (read+write) MSHR hits (Count)
system.cpu.icache.demandMshrHits::total            55                       # number of demand (read+write) MSHR hits (Count)
system.cpu.icache.overallMshrHits::cpu.inst           55                       # number of overall MSHR hits (Count)
system.cpu.icache.overallMshrHits::total           55                       # number of overall MSHR hits (Count)
system.cpu.icache.demandMshrMisses::cpu.inst          263                       # number of demand (read+write) MSHR misses (Count)
system.cpu.icache.demandMshrMisses::total          263                       # number of demand (read+write) MSHR misses (Count)
system.cpu.icache.overallMshrMisses::cpu.inst          263                       # number of overall MSHR misses (Count)
system.cpu.icache.overallMshrMisses::total          263                       # number of overall MSHR misses (Count)
system.cpu.icache.demandMshrMissLatency::cpu.inst     20364500                       # number of demand (read+write) MSHR miss ticks (Tick)
system.cpu.icache.demandMshrMissLatency::total     20364500                       # number of demand (read+write) MSHR miss ticks (Tick)
system.cpu.icache.overallMshrMissLatency::cpu.inst     20364500                       # number of overall MSHR miss ticks (Tick)
system.cpu.icache.overallMshrMissLatency::total     20364500                       # number of overall MSHR miss ticks (Tick)
system.cpu.icache.demandMshrMissRate::cpu.inst     0.000576                       # mshr miss ratio for demand accesses (Ratio)
system.cpu.icache.demandMshrMissRate::total     0.000576                       # mshr miss ratio for demand accesses (Ratio)
system.cpu.icache.overallMshrMissRate::cpu.inst     0.000576                       # mshr miss ratio for overall accesses (Ratio)
system.cpu.icache.overallMshrMissRate::total     0.000576                       # mshr miss ratio for overall accesses (Ratio)
system.cpu.icache.demandAvgMshrMissLatency::cpu.inst 77431.558935                       # average overall mshr miss latency ((Tick/Count))
system.cpu.icache.demandAvgMshrMissLatency::total 77431.558935                       # average overall mshr miss latency ((Tick/Count))
system.cpu.icache.overallAvgMshrMissLatency::cpu.inst 77431.558935                       # average overall mshr miss latency ((Tick/Count))
system.cpu.icache.overallAvgMshrMissLatency::total 77431.558935                       # average overall mshr miss latency ((Tick/Count))
system.cpu.icache.replacements                    263                       # number of replacements (Count)
system.cpu.icache.ReadReq.hits::cpu.inst       456551                       # number of ReadReq hits (Count)
system.cpu.icache.ReadReq.hits::total          456551                       # number of ReadReq hits (Count)
system.cpu.icache.ReadReq.misses::cpu.inst          318                       # number of ReadReq misses (Count)
system.cpu.icache.ReadReq.misses::total           318                       # number of ReadReq misses (Count)
system.cpu.icache.ReadReq.missLatency::cpu.inst     24248000                       # number of ReadReq miss ticks (Tick)
system.cpu.icache.ReadReq.missLatency::total     24248000                       # number of ReadReq miss ticks (Tick)
system.cpu.icache.ReadReq.accesses::cpu.inst       456869                       # number of ReadReq accesses(hits+misses) (Count)
system.cpu.icache.ReadReq.accesses::total       456869                       # number of ReadReq accesses(hits+misses) (Count)
system.cpu.icache.ReadReq.missRate::cpu.inst     0.000696                       # miss rate for ReadReq accesses (Ratio)
system.cpu.icache.ReadReq.missRate::total     0.000696                       # miss rate for ReadReq accesses (Ratio)
system.cpu.icache.ReadReq.avgMissLatency::cpu.inst 76251.572327                       # average ReadReq miss latency ((Tick/Count))
system.cpu.icache.ReadReq.avgMissLatency::total 76251.572327                       # average ReadReq miss latency ((Tick/Count))
system.cpu.icache.ReadReq.mshrHits::cpu.inst           55                       # number of ReadReq MSHR hits (Count)
system.cpu.icache.ReadReq.mshrHits::total           55                       # number of ReadReq MSHR hits (Count)
system.cpu.icache.ReadReq.mshrMisses::cpu.inst          263                       # number of ReadReq MSHR misses (Count)
system.cpu.icache.ReadReq.mshrMisses::total          263                       # number of ReadReq MSHR misses (Count)
system.cpu.icache.ReadReq.mshrMissLatency::cpu.inst     20364500                       # number of ReadReq MSHR miss ticks (Tick)
system.cpu.icache.ReadReq.mshrMissLatency::total     20364500                       # number of ReadReq MSHR miss ticks (Tick)
system.cpu.icache.ReadReq.mshrMissRate::cpu.inst     0.000576                       # mshr miss rate for ReadReq accesses (Ratio)
system.cpu.icache.ReadReq.mshrMissRate::total     0.000576                       # mshr miss rate for ReadReq accesses (Ratio)
system.cpu.icache.ReadReq.avgMshrMissLatency::cpu.inst 77431.558935                       # average ReadReq mshr miss latency ((Tick/Count))
system.cpu.icache.ReadReq.avgMshrMissLatency::total 77431.558935                       # average ReadReq mshr miss latency ((Tick/Count))
system.cpu.icache.power_state.pwrStateResidencyTicks::UNDEFINED   3035785000                       # Cumulative time (in ticks) in various power states (Tick)
system.cpu.icache.tags.tagsInUse                  256                       # Average ticks per tags in use ((Tick/Count))
system.cpu.icache.tags.totalRefs               542245                       # Total number of references to valid blocks. (Count)
system.cpu.icache.tags.sampledRefs                519                       # Sample count of references to valid blocks. (Count)
system.cpu.icache.tags.avgRefs            1044.788054                       # Average number of references to valid blocks. ((Count/Count))
system.cpu.icache.tags.warmupTick                   0                       # The tick when the warmup percentage was hit. (Tick)
system.cpu.icache.tags.occupancies::cpu.inst          256                       # Average occupied blocks per tick, per requestor ((Count/Tick))
system.cpu.icache.tags.avgOccs::cpu.inst            1                       # Average percentage of cache occupancy ((Ratio/Tick))
system.cpu.icache.tags.avgOccs::total               1                       # Average percentage of cache occupancy ((Ratio/Tick))
system.cpu.icache.tags.occupanciesTaskId::1024          256                       # Occupied blocks per task id (Count)
system.cpu.icache.tags.ageTaskId_1024::0           81                       # Occupied blocks per task id, per block age (Count)
system.cpu.icache.tags.ageTaskId_1024::1           84                       # Occupied blocks per task id, per block age (Count)
system.cpu.icache.tags.ageTaskId_1024::3           91                       # Occupied blocks per task id, per block age (Count)
system.cpu.icache.tags.ratioOccsTaskId::1024            1                       # Ratio of occupied blocks and all blocks, per task id (Ratio)
system.cpu.icache.tags.tagAccesses            1827739                       # Number of tag accesses (Count)
system.cpu.icache.tags.dataAccesses           1827739                       # Number of data accesses (Count)
system.cpu.icache.tags.power_state.pwrStateResidencyTicks::UNDEFINED   3035785000                       # Cumulative time (in ticks) in various power states (Tick)
system.cpu.iew.idleCycles                           0                       # Number of cycles IEW is idle (Cycle)
system.cpu.iew.squashCycles                      1265                       # Number of cycles IEW is squashing (Cycle)
system.cpu.iew.blockCycles                    1230941                       # Number of cycles IEW is blocking (Cycle)
system.cpu.iew.unblockCycles                   306906                       # Number of cycles IEW is unblocking (Cycle)
system.cpu.iew.dispatchedInsts                9360493                       # Number of instructions dispatched to IQ (Count)
system.cpu.iew.dispSquashedInsts                   64                       # Number of squashed instructions skipped by dispatch (Count)
system.cpu.iew.dispLoadInsts                  1751036                       # Number of dispatched load instructions (Count)
system.cpu.iew.dispStoreInsts                 1070241                       # Number of dispatched store instructions (Count)
system.cpu.iew.dispNonSpecInsts                   244                       # Number of dispatched non-speculative instructions (Count)
system.cpu.iew.iqFullEvents                     31554                       # Number of times the IQ has become full, causing a stall (Count)
system.cpu.iew.lsqFullEvents                   264758                       # Number of times the LSQ has become full, causing a stall (Count)
system.cpu.iew.memOrderViolationEvents             60                       # Number of memory order violations (Count)
system.cpu.iew.predictedTakenIncorrect            310                       # Number of branches that were predicted taken incorrectly (Count)
system.cpu.iew.predictedNotTakenIncorrect          752                       # Number of branches that were predicted not taken incorrectly (Count)
system.cpu.iew.branchMispredicts                 1062                       # Number of branch mispredicts detected at execute (Count)
system.cpu.iew.instsToCommit                  9339711                       # Cumulative count of insts sent to commit (Count)
system.cpu.iew.writebackCount                 9338245                       # Cumulative count of insts written-back (Count)
system.cpu.iew.producerInst                   5350455                       # Number of instructions producing a value (Count)
system.cpu.iew.consumerInst                   8467725                       # Number of instructions consuming a value (Count)
system.cpu.iew.wbRate                        2.289261                       # Insts written-back per cycle ((Count/Cycle))
system.cpu.iew.wbFanout                      0.631865                       # Average fanout of values written-back ((Count/Count))
system.cpu.lsq0.forwLoads                       22105                       # Number of loads that had data forwarded from stores (Count)
system.cpu.lsq0.squashedLoads                   10259                       # Number of loads squashed (Count)
system.cpu.lsq0.ignoredResponses                    0                       # Number of memory responses ignored because the instruction is squashed (Count)
system.cpu.lsq0.memOrderViolation                  60                       # Number of memory ordering violations (Count)
system.cpu.lsq0.squashedStores                   3967                       # Number of stores squashed (Count)
system.cpu.lsq0.rescheduledLoads                92837                       # Number of loads that were rescheduled (Count)
system.cpu.lsq0.blockedByCache                     60                       # Number of times an access to memory failed due to the cache being blocked (Count)
system.cpu.lsq0.loadToUse::samples            1740777                       # Distribution of cycle latency between the first time a load is issued and its completion (Unspecified)
system.cpu.lsq0.loadToUse::mean              8.420877                       # Distribution of cycle latency between the first time a load is issued and its completion (Unspecified)
system.cpu.lsq0.loadToUse::stdev            28.719671                       # Distribution of cycle latency between the first time a load is issued and its completion (Unspecified)
system.cpu.lsq0.loadToUse::0-9                1668119     95.83%     95.83% # Distribution of cycle latency between the first time a load is issued and its completion (Unspecified)
system.cpu.lsq0.loadToUse::10-19                17025      0.98%     96.80% # Distribution of cycle latency between the first time a load is issued and its completion (Unspecified)
system.cpu.lsq0.loadToUse::20-29                    8      0.00%     96.80% # Distribution of cycle latency between the first time a load is issued and its completion (Unspecified)
system.cpu.lsq0.loadToUse::30-39                 4371      0.25%     97.06% # Distribution of cycle latency between the first time a load is issued and its completion (Unspecified)
system.cpu.lsq0.loadToUse::40-49                    2      0.00%     97.06% # Distribution of cycle latency between the first time a load is issued and its completion (Unspecified)
system.cpu.lsq0.loadToUse::70-79                    1      0.00%     97.06% # Distribution of cycle latency between the first time a load is issued and its completion (Unspecified)
system.cpu.lsq0.loadToUse::80-89                    1      0.00%     97.06% # Distribution of cycle latency between the first time a load is issued and its completion (Unspecified)
system.cpu.lsq0.loadToUse::100-109                  4      0.00%     97.06% # Distribution of cycle latency between the first time a load is issued and its completion (Unspecified)
system.cpu.lsq0.loadToUse::110-119                  3      0.00%     97.06% # Distribution of cycle latency between the first time a load is issued and its completion (Unspecified)
system.cpu.lsq0.loadToUse::120-129                  1      0.00%     97.06% # Distribution of cycle latency between the first time a load is issued and its completion (Unspecified)
system.cpu.lsq0.loadToUse::130-139                 19      0.00%     97.06% # Distribution of cycle latency between the first time a load is issued and its completion (Unspecified)
system.cpu.lsq0.loadToUse::140-149              35834      2.06%     99.12% # Distribution of cycle latency between the first time a load is issued and its completion (Unspecified)
system.cpu.lsq0.loadToUse::150-159               8831      0.51%     99.62% # Distribution of cycle latency between the first time a load is issued and its completion (Unspecified)
system.cpu.lsq0.loadToUse::160-169                212      0.01%     99.64% # Distribution of cycle latency between the first time a load is issued and its completion (Unspecified)
system.cpu.lsq0.loadToUse::170-179               3056      0.18%     99.81% # Distribution of cycle latency between the first time a load is issued and its completion (Unspecified)
system.cpu.lsq0.loadToUse::180-189                649      0.04%     99.85% # Distribution of cycle latency between the first time a load is issued and its completion (Unspecified)
system.cpu.lsq0.loadToUse::190-199                 78      0.00%     99.85% # Distribution of cycle latency between the first time a load is issued and its completion (Unspecified)
system.cpu.lsq0.loadToUse::200-209                364      0.02%     99.87% # Distribution of cycle latency between the first time a load is issued and its completion (Unspecified)
system.cpu.lsq0.loadToUse::210-219                477      0.03%     99.90% # Distribution of cycle latency between the first time a load is issued and its completion (Unspecified)
[...]
system.mem_ctrls.dram.perBankWrBursts::7          417                       # Per bank write bursts (Count)
system.mem_ctrls.dram.perBankWrBursts::8          499                       # Per bank write bursts (Count)
system.mem_ctrls.dram.perBankWrBursts::9          479                       # Per bank write bursts (Count)
system.mem_ctrls.dram.perBankWrBursts::10          314                       # Per bank write bursts (Count)
system.mem_ctrls.dram.perBankWrBursts::11          194                       # Per bank write bursts (Count)
system.mem_ctrls.dram.perBankWrBursts::12          404                       # Per bank write bursts (Count)
system.mem_ctrls.dram.perBankWrBursts::13          556                       # Per bank write bursts (Count)
system.mem_ctrls.dram.perBankWrBursts::14          447                       # Per bank write bursts (Count)
system.mem_ctrls.dram.perBankWrBursts::15          475                       # Per bank write bursts (Count)
system.mem_ctrls.dram.totQLat               199053750                       # Total ticks spent queuing (Tick)
system.mem_ctrls.dram.totBusLat             119055000                       # Total ticks spent in databus transfers (Tick)
system.mem_ctrls.dram.totMemAccLat          645510000                       # Total ticks spent from burst creation until serviced by the DRAM (Tick)
system.mem_ctrls.dram.avgQLat                 8359.74                       # Average queueing delay per DRAM burst ((Tick/Count))
system.mem_ctrls.dram.avgBusLat               5000.00                       # Average bus latency per DRAM burst ((Tick/Count))
system.mem_ctrls.dram.avgMemAccLat           27109.74                       # Average memory access latency per DRAM burst ((Tick/Count))
system.mem_ctrls.dram.readRowHits               21722                       # Number of row buffer hits during reads (Count)
system.mem_ctrls.dram.writeRowHits               5027                       # Number of row buffer hits during writes (Count)
system.mem_ctrls.dram.readRowHitRate            91.23                       # Row buffer hit rate for reads (Ratio)
system.mem_ctrls.dram.writeRowHitRate           83.59                       # Row buffer hit rate for writes (Ratio)
system.mem_ctrls.dram.bytesPerActivate::samples         3074                       # Bytes accessed per row activation (Byte)
system.mem_ctrls.dram.bytesPerActivate::mean   620.824984                       # Bytes accessed per row activation (Byte)
system.mem_ctrls.dram.bytesPerActivate::gmean   451.970005                       # Bytes accessed per row activation (Byte)
system.mem_ctrls.dram.bytesPerActivate::stdev   376.249028                       # Bytes accessed per row activation (Byte)
system.mem_ctrls.dram.bytesPerActivate::0-127          311     10.12%     10.12% # Bytes accessed per row activation (Byte)
system.mem_ctrls.dram.bytesPerActivate::128-255          406     13.21%     23.32% # Bytes accessed per row activation (Byte)
system.mem_ctrls.dram.bytesPerActivate::256-383          343     11.16%     34.48% # Bytes accessed per row activation (Byte)
system.mem_ctrls.dram.bytesPerActivate::384-511          199      6.47%     40.96% # Bytes accessed per row activation (Byte)
system.mem_ctrls.dram.bytesPerActivate::512-639          235      7.64%     48.60% # Bytes accessed per row activation (Byte)
system.mem_ctrls.dram.bytesPerActivate::640-767          200      6.51%     55.11% # Bytes accessed per row activation (Byte)
system.mem_ctrls.dram.bytesPerActivate::768-895          114      3.71%     58.82% # Bytes accessed per row activation (Byte)
system.mem_ctrls.dram.bytesPerActivate::896-1023          105      3.42%     62.23% # Bytes accessed per row activation (Byte)
system.mem_ctrls.dram.bytesPerActivate::1024-1151         1161     37.77%    100.00% # Bytes accessed per row activation (Byte)
system.mem_ctrls.dram.bytesPerActivate::total         3074                       # Bytes accessed per row activation (Byte)
system.mem_ctrls.dram.bytesRead               1523904                       # Total bytes read (Byte)
system.mem_ctrls.dram.bytesWritten             384896                       # Total bytes written (Byte)
system.mem_ctrls.dram.avgRdBW              747.167058                       # Average DRAM read bandwidth in MiBytes/s ((Byte/Second))
system.mem_ctrls.dram.avgWrBW              188.713733                       # Average DRAM write bandwidth in MiBytes/s ((Byte/Second))
system.mem_ctrls.dram.peakBW                 12800.00                       # Theoretical peak bandwidth in MiByte/s ((Byte/Second))
system.mem_ctrls.dram.busUtil                    7.31                       # Data bus utilization in percentage (Ratio)
system.mem_ctrls.dram.busUtilRead                5.84                       # Data bus utilization in percentage for reads (Ratio)
system.mem_ctrls.dram.busUtilWrite               1.47                       # Data bus utilization in percentage for writes (Ratio)
system.mem_ctrls.dram.pageHitRate               89.69                       # Row buffer hit rate, read and write combined (Ratio)
system.mem_ctrls.dram.power_state.pwrStateResidencyTicks::UNDEFINED   3035785000                       # Cumulative time (in ticks) in various power states (Tick)
system.mem_ctrls.dram.rank0.actEnergy        10552920                       # Energy for activate commands per rank (pJ) (Joule)
system.mem_ctrls.dram.rank0.preEnergy         5582445                       # Energy for precharge commands per rank (pJ) (Joule)
system.mem_ctrls.dram.rank0.readEnergy       81974340                       # Energy for read commands per rank (pJ) (Joule)
system.mem_ctrls.dram.rank0.writeEnergy      13817340                       # Energy for write commands per rank (pJ) (Joule)
system.mem_ctrls.dram.rank0.refreshEnergy 161035680.000000                       # Energy for refresh commands per rank (pJ) (Joule)
system.mem_ctrls.dram.rank0.actBackEnergy    671909160                       # Energy for active background per rank (pJ) (Joule)
system.mem_ctrls.dram.rank0.preBackEnergy    220098240                       # Energy for precharge background per rank (pJ) (Joule)
system.mem_ctrls.dram.rank0.actPowerDownEnergy            0                       # Energy for active power-down per rank (pJ) (Joule)
system.mem_ctrls.dram.rank0.prePowerDownEnergy            0                       # Energy for precharge power-down per rank (pJ) (Joule)
system.mem_ctrls.dram.rank0.selfRefreshEnergy            0                       # Energy for self refresh per rank (pJ) (Joule)
system.mem_ctrls.dram.rank0.totalEnergy    1164970125                       # Total energy per rank (pJ) (Joule)
system.mem_ctrls.dram.rank0.averagePower   571.182503                       # Core power per rank (mW) (Watt)
system.mem_ctrls.dram.rank0.totalIdleTime            0                       # Total Idle time Per DRAM Rank (Tick)
system.mem_ctrls.dram.rank0.pwrStateTime::IDLE    565434000                       # Time in different power states (Tick)
system.mem_ctrls.dram.rank0.pwrStateTime::REF     68120000                       # Time in different power states (Tick)
system.mem_ctrls.dram.rank0.pwrStateTime::SREF            0                       # Time in different power states (Tick)
system.mem_ctrls.dram.rank0.pwrStateTime::PRE_PDN            0                       # Time in different power states (Tick)
system.mem_ctrls.dram.rank0.pwrStateTime::ACT   1413103500                       # Time in different power states (Tick)
system.mem_ctrls.dram.rank0.pwrStateTime::ACT_PDN            0                       # Time in different power states (Tick)
system.mem_ctrls.dram.rank1.actEnergy        11652480                       # Energy for activate commands per rank (pJ) (Joule)
system.mem_ctrls.dram.rank1.preEnergy         6163080                       # Energy for precharge commands per rank (pJ) (Joule)
system.mem_ctrls.dram.rank1.readEnergy       88614540                       # Energy for read commands per rank (pJ) (Joule)
system.mem_ctrls.dram.rank1.writeEnergy      17669700                       # Energy for write commands per rank (pJ) (Joule)
system.mem_ctrls.dram.rank1.refreshEnergy 161035680.000000                       # Energy for refresh commands per rank (pJ) (Joule)
system.mem_ctrls.dram.rank1.actBackEnergy    705863490                       # Energy for active background per rank (pJ) (Joule)
system.mem_ctrls.dram.rank1.preBackEnergy    191477280                       # Energy for precharge background per rank (pJ) (Joule)
system.mem_ctrls.dram.rank1.actPowerDownEnergy            0                       # Energy for active power-down per rank (pJ) (Joule)
system.mem_ctrls.dram.rank1.prePowerDownEnergy            0                       # Energy for precharge power-down per rank (pJ) (Joule)
system.mem_ctrls.dram.rank1.selfRefreshEnergy            0                       # Energy for self refresh per rank (pJ) (Joule)
system.mem_ctrls.dram.rank1.totalEnergy    1182476250                       # Total energy per rank (pJ) (Joule)
system.mem_ctrls.dram.rank1.averagePower   579.765721                       # Core power per rank (mW) (Watt)
system.mem_ctrls.dram.rank1.totalIdleTime            0                       # Total Idle time Per DRAM Rank (Tick)
system.mem_ctrls.dram.rank1.pwrStateTime::IDLE    490928500                       # Time in different power states (Tick)
system.mem_ctrls.dram.rank1.pwrStateTime::REF     68120000                       # Time in different power states (Tick)
system.mem_ctrls.dram.rank1.pwrStateTime::SREF            0                       # Time in different power states (Tick)
system.mem_ctrls.dram.rank1.pwrStateTime::PRE_PDN            0                       # Time in different power states (Tick)
system.mem_ctrls.dram.rank1.pwrStateTime::ACT   1487536500                       # Time in different power states (Tick)
system.mem_ctrls.dram.rank1.pwrStateTime::ACT_PDN            0                       # Time in different power states (Tick)
system.mem_ctrls.power_state.pwrStateResidencyTicks::UNDEFINED   3035785000                       # Cumulative time (in ticks) in various power states (Tick)
system.membus.transDist::ReadResp               23802                       # Transaction distribution (Count)
system.membus.transDist::WritebackDirty          6019                       # Transaction distribution (Count)
system.membus.transDist::CleanEvict             17728                       # Transaction distribution (Count)
system.membus.transDist::ReadExReq                  9                       # Transaction distribution (Count)
system.membus.transDist::ReadExResp                 9                       # Transaction distribution (Count)
system.membus.transDist::ReadSharedReq          23802                       # Transaction distribution (Count)
system.membus.pktCount_system.l2.mem_side_port::system.mem_ctrls.port        71369                       # Packet count per connected requestor and responder (Count)
system.membus.pktCount::total                   71369                       # Packet count per connected requestor and responder (Count)
system.membus.pktSize_system.l2.mem_side_port::system.mem_ctrls.port      1909120                       # Cumulative packet size per connected requestor and responder (Byte)
system.membus.pktSize::total                  1909120                       # Cumulative packet size per connected requestor and responder (Byte)
system.membus.snoops                                0                       # Total snoops (Count)
system.membus.snoopTraffic                          0                       # Total snoop traffic (Byte)
system.membus.snoopFanout::samples              23811                       # Request fanout histogram (Count)
system.membus.snoopFanout::mean                     0                       # Request fanout histogram (Count)
system.membus.snoopFanout::stdev                    0                       # Request fanout histogram (Count)
system.membus.snoopFanout::underflows               0      0.00%      0.00% # Request fanout histogram (Count)
system.membus.snoopFanout::0                    23811    100.00%    100.00% # Request fanout histogram (Count)
system.membus.snoopFanout::1                        0      0.00%    100.00% # Request fanout histogram (Count)
system.membus.snoopFanout::overflows                0      0.00%    100.00% # Request fanout histogram (Count)
system.membus.snoopFanout::min_value                0                       # Request fanout histogram (Count)
system.membus.snoopFanout::max_value                0                       # Request fanout histogram (Count)
system.membus.snoopFanout::total                23811                       # Request fanout histogram (Count)
system.membus.power_state.pwrStateResidencyTicks::UNDEFINED   3035785000                       # Cumulative time (in ticks) in various power states (Tick)
system.membus.reqLayer0.occupancy            75969000                       # Layer occupancy (ticks) (Tick)
system.membus.reqLayer0.utilization               0.0                       # Layer utilization (Ratio)
system.membus.respLayer1.occupancy          123563000                       # Layer occupancy (ticks) (Tick)
system.membus.respLayer1.utilization              0.1                       # Layer utilization (Ratio)
system.membus.snoop_filter.totRequests          47558                       # Total number of requests made to the snoop filter. (Count)
system.membus.snoop_filter.hitSingleRequests        23747                       # Number of requests hitting in the snoop filter with a single holder of the requested data. (Count)
system.membus.snoop_filter.hitMultiRequests            0                       # Number of requests hitting in the snoop filter with multiple (>1) holders of the requested data. (Count)
system.membus.snoop_filter.totSnoops                0                       # Total number of snoops made to the snoop filter. (Count)
system.membus.snoop_filter.hitSingleSnoops            0                       # Number of snoops hitting in the snoop filter with a single holder of the requested data. (Count)
system.membus.snoop_filter.hitMultiSnoops            0                       # Number of snoops hitting in the snoop filter with multiple (>1) holders of the requested data. (Count)
system.tol2bus.transDist::ReadResp              23828                       # Transaction distribution (Count)
system.tol2bus.transDist::WritebackDirty        12607                       # Transaction distribution (Count)
system.tol2bus.transDist::WritebackClean          263                       # Transaction distribution (Count)
system.tol2bus.transDist::CleanEvict            35001                       # Transaction distribution (Count)
system.tol2bus.transDist::ReadExReq                 9                       # Transaction distribution (Count)
system.tol2bus.transDist::ReadExResp                9                       # Transaction distribution (Count)
system.tol2bus.transDist::ReadCleanReq            263                       # Transaction distribution (Count)
system.tol2bus.transDist::ReadSharedReq         23565                       # Transaction distribution (Count)
system.tol2bus.pktCount_system.cpu.icache.mem_side_port::system.l2.cpu_side_port          789                       # Packet count per connected requestor and responder (Count)
system.tol2bus.pktCount_system.cpu.dcache.mem_side_port::system.l2.cpu_side_port        70722                       # Packet count per connected requestor and responder (Count)
system.tol2bus.pktCount::total                  71511                       # Packet count per connected requestor and responder (Count)
system.tol2bus.pktSize_system.cpu.icache.mem_side_port::system.l2.cpu_side_port        33664                       # Cumulative packet size per connected requestor and responder (Byte)
system.tol2bus.pktSize_system.cpu.dcache.mem_side_port::system.l2.cpu_side_port      1930368                       # Cumulative packet size per connected requestor and responder (Byte)
system.tol2bus.pktSize::total                 1964032                       # Cumulative packet size per connected requestor and responder (Byte)
system.tol2bus.snoops                           24034                       # Total snoops (Count)
system.tol2bus.snoopTraffic                    385216                       # Total snoop traffic (Byte)
system.tol2bus.snoopFanout::samples             47871                       # Request fanout histogram (Count)
system.tol2bus.snoopFanout::mean             0.007102                       # Request fanout histogram (Count)
system.tol2bus.snoopFanout::stdev            0.083977                       # Request fanout histogram (Count)
system.tol2bus.snoopFanout::underflows              0      0.00%      0.00% # Request fanout histogram (Count)
system.tol2bus.snoopFanout::0                   47531     99.29%     99.29% # Request fanout histogram (Count)
system.tol2bus.snoopFanout::1                     340      0.71%    100.00% # Request fanout histogram (Count)
system.tol2bus.snoopFanout::2                       0      0.00%    100.00% # Request fanout histogram (Count)
system.tol2bus.snoopFanout::overflows               0      0.00%    100.00% # Request fanout histogram (Count)
system.tol2bus.snoopFanout::min_value               0                       # Request fanout histogram (Count)
system.tol2bus.snoopFanout::max_value               1                       # Request fanout histogram (Count)
system.tol2bus.snoopFanout::total               47871                       # Request fanout histogram (Count)
system.tol2bus.power_state.pwrStateResidencyTicks::UNDEFINED   3035785000                       # Cumulative time (in ticks) in various power states (Tick)
system.tol2bus.reqLayer0.occupancy           30688000                       # Layer occupancy (ticks) (Tick)
system.tol2bus.reqLayer0.utilization              0.0                       # Layer utilization (Ratio)
system.tol2bus.respLayer0.occupancy            394500                       # Layer occupancy (ticks) (Tick)
system.tol2bus.respLayer0.utilization             0.0                       # Layer utilization (Ratio)
system.tol2bus.respLayer1.occupancy          35361000                       # Layer occupancy (ticks) (Tick)
system.tol2bus.respLayer1.utilization             0.0                       # Layer utilization (Ratio)
system.tol2bus.snoop_filter.totRequests         47674                       # Total number of requests made to the snoop filter. (Count)
system.tol2bus.snoop_filter.hitSingleRequests        23838                       # Number of requests hitting in the snoop filter with a single holder of the requested data. (Count)
system.tol2bus.snoop_filter.hitMultiRequests            0                       # Number of requests hitting in the snoop filter with multiple (>1) holders of the requested data. (Count)
system.tol2bus.snoop_filter.totSnoops             339                       # Total number of snoops made to the snoop filter. (Count)
system.tol2bus.snoop_filter.hitSingleSnoops          339                       # Number of snoops hitting in the snoop filter with a single holder of the requested data. (Count)
system.tol2bus.snoop_filter.hitMultiSnoops            0                       # Number of snoops hitting in the snoop filter with multiple (>1) holders of the requested data. (Count)
system.voltage_domain.voltage                       1                       # Voltage in Volts (Volt)
system.workload.inst.arm                            0                       # number of arm instructions executed (Count)
system.workload.inst.quiesce                        0                       # number of quiesce instructions executed (Count)

---------- End Simulation Statistics   ----------
