
---------- Begin Simulation Statistics ----------
simSeconds                                   0.117046                       # Number of seconds simulated (Second)
simTicks                                 117046056500                       # Number of ticks simulated (Tick)
finalTick                                118036287500                       # Number of ticks from beginning of simulation (restored from checkpoints and never reset) (Tick)
simFreq                                  1000000000000                       # The number of ticks per simulated second ((Tick/Second))
hostSeconds                                    446.11                       # Real time elapsed on the host (Second)
hostTickRate                                262370267                       # The number of ticks simulated per host second (ticks/s) ((Tick/Second))
hostMemory                                     680116                       # Number of bytes of host memory used (Byte)
simInsts                                     48511198                       # Number of instructions simulated (Count)
simOps                                       58732533                       # Number of ops (including micro ops) simulated (Count)
hostInstRate                                   108743                       # Simulator instruction rate (inst/s) ((Count/Second))
hostOpRate                                     131655                       # Simulator op (including micro ops) rate (op/s) ((Count/Second))
system.clk_domain.clock                          1000                       # Clock period in ticks (Tick)
system.cpu.numCycles                        234092113                       # Number of cpu cycles simulated (Cycle)
system.cpu.numWorkItemsStarted                      0                       # Number of work items this cpu started (Count)
system.cpu.numWorkItemsCompleted                    0                       # Number of work items this cpu completed (Count)
system.cpu.instsAdded                        57149207                       # Number of instructions added to the IQ (excludes non-spec) (Count)
system.cpu.nonSpecInstsAdded                        9                       # Number of non-speculative instructions added to the IQ (Count)
system.cpu.instsIssued                      101683169                       # Number of instructions issued (Count)
system.cpu.squashedInstsIssued                  63406                       # Number of squashed instructions issued (Count)
system.cpu.squashedInstsExamined               343074                       # Number of squashed instructions iterated over during squash; mainly for profiling (Count)
system.cpu.squashedOperandsExamined            792630                       # Number of squashed operands that are examined and possibly removed from graph (Count)
system.cpu.squashedNonSpecRemoved                   6                       # Number of squashed non-spec instructions that were removed (Count)
system.cpu.numIssuedDist::samples           234088448                       # Number of insts issued each cycle (Count)
system.cpu.numIssuedDist::mean               0.434379                       # Number of insts issued each cycle (Count)
system.cpu.numIssuedDist::stdev              1.240016                       # Number of insts issued each cycle (Count)
system.cpu.numIssuedDist::underflows                0      0.00%      0.00% # Number of insts issued each cycle (Count)
system.cpu.numIssuedDist::0                 203125101     86.77%     86.77% # Number of insts issued each cycle (Count)
system.cpu.numIssuedDist::1                   4525343      1.93%     88.71% # Number of insts issued each cycle (Count)
system.cpu.numIssuedDist::2                   6764845      2.89%     91.60% # Number of insts issued each cycle (Count)
system.cpu.numIssuedDist::3                   3935236      1.68%     93.28% # Number of insts issued each cycle (Count)
system.cpu.numIssuedDist::4                   9093841      3.88%     97.16% # Number of insts issued each cycle (Count)
system.cpu.numIssuedDist::5                   4863611      2.08%     99.24% # Number of insts issued each cycle (Count)
system.cpu.numIssuedDist::6                   1395083      0.60%     99.84% # Number of insts issued each cycle (Count)
system.cpu.numIssuedDist::7                    324593      0.14%     99.97% # Number of insts issued each cycle (Count)
system.cpu.numIssuedDist::8                     60795      0.03%    100.00% # Number of insts issued each cycle (Count)
system.cpu.numIssuedDist::overflows                 0      0.00%    100.00% # Number of insts issued each cycle (Count)
system.cpu.numIssuedDist::min_value                 0                       # Number of insts issued each cycle (Count)
system.cpu.numIssuedDist::max_value                 8                       # Number of insts issued each cycle (Count)
system.cpu.numIssuedDist::total             234088448                       # Number of insts issued each cycle (Count)
system.cpu.statFuBusy::No_OpClass                   0      0.00%      0.00% # attempts to use FU when none available (Count)
system.cpu.statFuBusy::IntAlu                       0      0.00%      0.00% # attempts to use FU when none available (Count)
system.cpu.statFuBusy::IntMult                      0      0.00%      0.00% # attempts to use FU when none available (Count)
system.cpu.statFuBusy::IntDiv                       0      0.00%      0.00% # attempts to use FU when none available (Count)
system.cpu.statFuBusy::FloatAdd                     0      0.00%      0.00% # attempts to use FU when none available (Count)
system.cpu.statFuBusy::FloatCmp                     0      0.00%      0.00% # attempts to use FU when none available (Count)
system.cpu.statFuBusy::FloatCvt                     0      0.00%      0.00% # attempts to use FU when none available (Count)
system.cpu.statFuBusy::FloatMult                    0      0.00%      0.00% # attempts to use FU when none available (Count)
system.cpu.statFuBusy::FloatMultAcc                 0      0.00%      0.00% # attempts to use FU when none available (Count)
system.cpu.statFuBusy::FloatDiv                     0      0.00%      0.00% # attempts to use FU when none available (Count)
system.cpu.statFuBusy::FloatMisc                    0      0.00%      0.00% # attempts to use FU when none available (Count)
system.cpu.statFuBusy::FloatSqrt                    0      0.00%      0.00% # attempts to use FU when none available (Count)
system.cpu.statFuBusy::SimdAdd                   1578      0.02%      0.02% # attempts to use FU when none available (Count)
system.cpu.statFuBusy::SimdAddAcc                   0      0.00%      0.02% # attempts to use FU when none available (Count)
system.cpu.statFuBusy::SimdAlu                    126      0.00%      0.02% # attempts to use FU when none available (Count)
system.cpu.statFuBusy::SimdCmp                      0      0.00%      0.02% # attempts to use FU when none available (Count)
system.cpu.statFuBusy::SimdCvt                      0      0.00%      0.02% # attempts to use FU when none available (Count)
system.cpu.statFuBusy::SimdMisc                     8      0.00%      0.02% # attempts to use FU when none available (Count)
system.cpu.statFuBusy::SimdMult                    27      0.00%      0.02% # attempts to use FU when none available (Count)
system.cpu.statFuBusy::SimdMultAcc                  0      0.00%      0.02% # attempts to use FU when none available (Count)
system.cpu.statFuBusy::SimdShift                    0      0.00%      0.02% # attempts to use FU when none available (Count)
system.cpu.statFuBusy::SimdShiftAcc                 0      0.00%      0.02% # attempts to use FU when none available (Count)
system.cpu.statFuBusy::SimdDiv                      0      0.00%      0.02% # attempts to use FU when none available (Count)
system.cpu.statFuBusy::SimdSqrt                     0      0.00%      0.02% # attempts to use FU when none available (Count)
system.cpu.statFuBusy::SimdFloatAdd                 0      0.00%      0.02% # attempts to use FU when none available (Count)
system.cpu.statFuBusy::SimdFloatAlu                 0      0.00%      0.02% # attempts to use FU when none available (Count)
system.cpu.statFuBusy::SimdFloatCmp                 0      0.00%      0.02% # attempts to use FU when none available (Count)
system.cpu.statFuBusy::SimdFloatCvt                 0      0.00%      0.02% # attempts to use FU when none available (Count)
system.cpu.statFuBusy::SimdFloatDiv                 0      0.00%      0.02% # attempts to use FU when none available (Count)
system.cpu.statFuBusy::SimdFloatMisc                0      0.00%      0.02% # attempts to use FU when none available (Count)
system.cpu.statFuBusy::SimdFloatMult                0      0.00%      0.02% # attempts to use FU when none available (Count)
system.cpu.statFuBusy::SimdFloatMultAcc             0      0.00%      0.02% # attempts to use FU when none available (Count)
system.cpu.statFuBusy::SimdFloatSqrt                0      0.00%      0.02% # attempts to use FU when none available (Count)
system.cpu.statFuBusy::SimdReduceAdd                0      0.00%      0.02% # attempts to use FU when none available (Count)
system.cpu.statFuBusy::SimdReduceAlu                0      0.00%      0.02% # attempts to use FU when none available (Count)
system.cpu.statFuBusy::SimdReduceCmp                0      0.00%      0.02% # attempts to use FU when none available (Count)
system.cpu.statFuBusy::SimdFloatReduceAdd            0      0.00%      0.02% # attempts to use FU when none available (Count)
system.cpu.statFuBusy::SimdFloatReduceCmp            0      0.00%      0.02% # attempts to use FU when none available (Count)
system.cpu.statFuBusy::SimdAes                      0      0.00%      0.02% # attempts to use FU when none available (Count)
system.cpu.statFuBusy::SimdAesMix                   0      0.00%      0.02% # attempts to use FU when none available (Count)
system.cpu.statFuBusy::SimdSha1Hash                 0      0.00%      0.02% # attempts to use FU when none available (Count)
system.cpu.statFuBusy::SimdSha1Hash2                0      0.00%      0.02% # attempts to use FU when none available (Count)
system.cpu.statFuBusy::SimdSha256Hash               0      0.00%      0.02% # attempts to use FU when none available (Count)
system.cpu.statFuBusy::SimdSha256Hash2              0      0.00%      0.02% # attempts to use FU when none available (Count)
system.cpu.statFuBusy::SimdShaSigma2                0      0.00%      0.02% # attempts to use FU when none available (Count)
system.cpu.statFuBusy::SimdShaSigma3                0      0.00%      0.02% # attempts to use FU when none available (Count)
system.cpu.statFuBusy::SimdPredAlu                  0      0.00%      0.02% # attempts to use FU when none available (Count)
system.cpu.statFuBusy::MemRead                8325831     99.98%    100.00% # attempts to use FU when none available (Count)
system.cpu.statFuBusy::MemWrite                   215      0.00%    100.00% # attempts to use FU when none available (Count)
system.cpu.statFuBusy::FloatMemRead                 0      0.00%    100.00% # attempts to use FU when none available (Count)
system.cpu.statFuBusy::FloatMemWrite                0      0.00%    100.00% # attempts to use FU when none available (Count)
system.cpu.statFuBusy::IprAccess                    0      0.00%    100.00% # attempts to use FU when none available (Count)
system.cpu.statFuBusy::InstPrefetch                 0      0.00%    100.00% # attempts to use FU when none available (Count)
system.cpu.statIssuedInstType_0::No_OpClass      3317790      3.26%      3.26% # Number of instructions issued per FU type, per thread (Count)
system.cpu.statIssuedInstType_0::IntAlu      20369716     20.03%     23.30% # Number of instructions issued per FU type, per thread (Count)
system.cpu.statIssuedInstType_0::IntMult          100      0.00%     23.30% # Number of instructions issued per FU type, per thread (Count)
system.cpu.statIssuedInstType_0::IntDiv             0      0.00%     23.30% # Number of instructions issued per FU type, per thread (Count)
system.cpu.statIssuedInstType_0::FloatAdd            0      0.00%     23.30% # Number of instructions issued per FU type, per thread (Count)
system.cpu.statIssuedInstType_0::FloatCmp            0      0.00%     23.30% # Number of instructions issued per FU type, per thread (Count)
system.cpu.statIssuedInstType_0::FloatCvt            0      0.00%     23.30% # Number of instructions issued per FU type, per thread (Count)
system.cpu.statIssuedInstType_0::FloatMult            0      0.00%     23.30% # Number of instructions issued per FU type, per thread (Count)
system.cpu.statIssuedInstType_0::FloatMultAcc            0      0.00%     23.30% # Number of instructions issued per FU type, per thread (Count)
system.cpu.statIssuedInstType_0::FloatDiv            0      0.00%     23.30% # Number of instructions issued per FU type, per thread (Count)
system.cpu.statIssuedInstType_0::FloatMisc            0      0.00%     23.30% # Number of instructions issued per FU type, per thread (Count)
system.cpu.statIssuedInstType_0::FloatSqrt            0      0.00%     23.30% # Number of instructions issued per FU type, per thread (Count)
system.cpu.statIssuedInstType_0::SimdAdd      6643022      6.53%     29.83% # Number of instructions issued per FU type, per thread (Count)
system.cpu.statIssuedInstType_0::SimdAddAcc            0      0.00%     29.83% # Number of instructions issued per FU type, per thread (Count)
system.cpu.statIssuedInstType_0::SimdAlu         1657      0.00%     29.83% # Number of instructions issued per FU type, per thread (Count)
system.cpu.statIssuedInstType_0::SimdCmp            0      0.00%     29.83% # Number of instructions issued per FU type, per thread (Count)
system.cpu.statIssuedInstType_0::SimdCvt            0      0.00%     29.83% # Number of instructions issued per FU type, per thread (Count)
system.cpu.statIssuedInstType_0::SimdMisc      6635441      6.53%     36.36% # Number of instructions issued per FU type, per thread (Count)
system.cpu.statIssuedInstType_0::SimdMult      6635332      6.53%     42.88% # Number of instructions issued per FU type, per thread (Count)
system.cpu.statIssuedInstType_0::SimdMultAcc            0      0.00%     42.88% # Number of instructions issued per FU type, per thread (Count)
system.cpu.statIssuedInstType_0::SimdShift            0      0.00%     42.88% # Number of instructions issued per FU type, per thread (Count)
system.cpu.statIssuedInstType_0::SimdShiftAcc            0      0.00%     42.88% # Number of instructions issued per FU type, per thread (Count)
system.cpu.statIssuedInstType_0::SimdDiv            0      0.00%     42.88% # Number of instructions issued per FU type, per thread (Count)
system.cpu.statIssuedInstType_0::SimdSqrt            0      0.00%     42.88% # Number of instructions issued per FU type, per thread (Count)
system.cpu.statIssuedInstType_0::SimdFloatAdd            0      0.00%     42.88% # Number of instructions issued per FU type, per thread (Count)
system.cpu.statIssuedInstType_0::SimdFloatAlu            0      0.00%     42.88% # Number of instructions issued per FU type, per thread (Count)
system.cpu.statIssuedInstType_0::SimdFloatCmp            0      0.00%     42.88% # Number of instructions issued per FU type, per thread (Count)
system.cpu.statIssuedInstType_0::SimdFloatCvt            0      0.00%     42.88% # Number of instructions issued per FU type, per thread (Count)
system.cpu.statIssuedInstType_0::SimdFloatDiv            0      0.00%     42.88% # Number of instructions issued per FU type, per thread (Count)
system.cpu.statIssuedInstType_0::SimdFloatMisc            0      0.00%     42.88% # Number of instructions issued per FU type, per thread (Count)
system.cpu.statIssuedInstType_0::SimdFloatMult            0      0.00%     42.88% # Number of instructions issued per FU type, per thread (Count)
system.cpu.statIssuedInstType_0::SimdFloatMultAcc            0      0.00%     42.88% # Number of instructions issued per FU type, per thread (Count)
system.cpu.statIssuedInstType_0::SimdFloatSqrt            0      0.00%     42.88% # Number of instructions issued per FU type, per thread (Count)
system.cpu.statIssuedInstType_0::SimdReduceAdd            0      0.00%     42.88% # Number of instructions issued per FU type, per thread (Count)
system.cpu.statIssuedInstType_0::SimdReduceAlu            0      0.00%     42.88% # Number of instructions issued per FU type, per thread (Count)
system.cpu.statIssuedInstType_0::SimdReduceCmp            0      0.00%     42.88% # Number of instructions issued per FU type, per thread (Count)
system.cpu.statIssuedInstType_0::SimdFloatReduceAdd            0      0.00%     42.88% # Number of instructions issued per FU type, per thread (Count)
system.cpu.statIssuedInstType_0::SimdFloatReduceCmp            0      0.00%     42.88% # Number of instructions issued per FU type, per thread (Count)
system.cpu.statIssuedInstType_0::SimdAes            0      0.00%     42.88% # Number of instructions issued per FU type, per thread (Count)
system.cpu.statIssuedInstType_0::SimdAesMix            0      0.00%     42.88% # Number of instructions issued per FU type, per thread (Count)
system.cpu.statIssuedInstType_0::SimdSha1Hash            0      0.00%     42.88% # Number of instructions issued per FU type, per thread (Count)
system.cpu.statIssuedInstType_0::SimdSha1Hash2            0      0.00%     42.88% # Number of instructions issued per FU type, per thread (Count)
system.cpu.statIssuedInstType_0::SimdSha256Hash            0      0.00%     42.88% # Number of instructions issued per FU type, per thread (Count)
system.cpu.statIssuedInstType_0::SimdSha256Hash2            0      0.00%     42.88% # Number of instructions issued per FU type, per thread (Count)
system.cpu.statIssuedInstType_0::SimdShaSigma2            0      0.00%     42.88% # Number of instructions issued per FU type, per thread (Count)
system.cpu.statIssuedInstType_0::SimdShaSigma3            0      0.00%     42.88% # Number of instructions issued per FU type, per thread (Count)
system.cpu.statIssuedInstType_0::SimdPredAlu            0      0.00%     42.88% # Number of instructions issued per FU type, per thread (Count)
system.cpu.statIssuedInstType_0::MemRead     54760044     53.85%     96.73% # Number of instructions issued per FU type, per thread (Count)
system.cpu.statIssuedInstType_0::MemWrite      3320067      3.27%    100.00% # Number of instructions issued per FU type, per thread (Count)
system.cpu.statIssuedInstType_0::FloatMemRead            0      0.00%    100.00% # Number of instructions issued per FU type, per thread (Count)
system.cpu.statIssuedInstType_0::FloatMemWrite            0      0.00%    100.00% # Number of instructions issued per FU type, per thread (Count)
system.cpu.statIssuedInstType_0::IprAccess            0      0.00%    100.00% # Number of instructions issued per FU type, per thread (Count)
system.cpu.statIssuedInstType_0::InstPrefetch            0      0.00%    100.00% # Number of instructions issued per FU type, per thread (Count)
system.cpu.statIssuedInstType_0::total      101683169                       # Number of instructions issued per FU type, per thread (Count)
system.cpu.issueRate                         0.434372                       # Inst issue rate ((Count/Cycle))
system.cpu.fuBusy                             8327785                       # FU busy when requested (Count)
system.cpu.fuBusyRate                        0.081899                       # FU busy rate (busy events/executed inst) ((Count/Count))
system.cpu.intInstQueueReads                319657528                       # Number of integer instruction queue reads (Count)
system.cpu.intInstQueueWrites                27170583                       # Number of integer instruction queue writes (Count)
system.cpu.intInstQueueWakeupAccesses        26997718                       # Number of integer instruction queue wakeup accesses (Count)
system.cpu.fpInstQueueReads                         0                       # Number of floating instruction queue reads (Count)
system.cpu.fpInstQueueWrites                        0                       # Number of floating instruction queue writes (Count)
system.cpu.fpInstQueueWakeupAccesses                0                       # Number of floating instruction queue wakeup accesses (Count)
system.cpu.vecInstQueueReads                126188449                       # Number of vector instruction queue reads (Count)
system.cpu.vecInstQueueWrites                30321708                       # Number of vector instruction queue writes (Count)
system.cpu.vecInstQueueWakeupAccesses        29873815                       # Number of vector instruction queue wakeup accesses (Count)
system.cpu.intAluAccesses                    44175426                       # Number of integer alu accesses (Count)
system.cpu.fpAluAccesses                            0                       # Number of floating point alu accesses (Count)
system.cpu.vecAluAccesses                    62517738                       # Number of vector alu accesses (Count)
system.cpu.numInsts                         101663820                       # Number of executed instructions (Count)
system.cpu.numLoadInsts                      54746563                       # Number of load instructions executed (Count)
system.cpu.numSquashedInsts                     19349                       # Number of squashed instructions skipped in execute (Count)
system.cpu.numSwp                                   0                       # Number of swp insts executed (Count)
system.cpu.numNop                                   9                       # Number of nop insts executed (Count)
system.cpu.numRefs                           58066628                       # Number of memory reference insts executed (Count)
system.cpu.numBranches                        3384643                       # Number of branches executed (Count)
system.cpu.numStoreInsts                      3320065                       # Number of stores executed (Count)
system.cpu.numRate                           0.434290                       # Inst execution rate ((Count/Cycle))
system.cpu.timesIdled                              44                       # Number of times that the entire CPU went into an idle state and unscheduled itself (Count)
system.cpu.idleCycles                            3665                       # Total number of cycles that the CPU has spent unscheduled due to idling (Cycle)
system.cpu.committedInsts                    46853813                       # Number of Instructions Simulated (Count)
system.cpu.committedOps                      56806052                       # Number of Ops (including micro ops) Simulated (Count)
system.cpu.cpi                               4.996223                       # CPI: Cycles Per Instruction ((Cycle/Count))
system.cpu.totalCpi                          4.996223                       # CPI: Total CPI of All Threads ((Cycle/Count))
system.cpu.ipc                               0.200151                       # IPC: Instructions Per Cycle ((Count/Cycle))
system.cpu.totalIpc                          0.200151                       # IPC: Total IPC of All Threads ((Count/Cycle))
system.cpu.intRegfileReads                   91892723                       # Number of integer regfile reads (Count)
system.cpu.intRegfileWrites                  23547346                       # Number of integer regfile writes (Count)
system.cpu.vecRegfileReads                   63069584                       # number of vector regfile reads (Count)
system.cpu.ccRegfileReads                    10153209                       # number of cc regfile reads (Count)
system.cpu.ccRegfileWrites                   10153566                       # number of cc regfile writes (Count)
system.cpu.miscRegfileReads                 117270693                       # number of misc regfile reads (Count)
system.cpu.MemDepUnit__0.insertedLoads       10045130                       # Number of loads inserted to the mem dependence unit. (Count)
system.cpu.MemDepUnit__0.insertedStores       3327959                       # Number of stores inserted to the mem dependence unit. (Count)
system.cpu.MemDepUnit__0.conflictingLoads            3                       # Number of conflicting loads. (Count)
system.cpu.MemDepUnit__0.conflictingStores           18                       # Number of conflicting stores. (Count)
system.cpu.MemDepUnit__1.insertedLoads              0                       # Number of loads inserted to the mem dependence unit. (Count)
system.cpu.MemDepUnit__1.insertedStores             0                       # Number of stores inserted to the mem dependence unit. (Count)
system.cpu.MemDepUnit__1.conflictingLoads            0                       # Number of conflicting loads. (Count)
system.cpu.MemDepUnit__1.conflictingStores            0                       # Number of conflicting stores. (Count)
system.cpu.MemDepUnit__2.insertedLoads              0                       # Number of loads inserted to the mem dependence unit. (Count)
system.cpu.MemDepUnit__2.insertedStores             0                       # Number of stores inserted to the mem dependence unit. (Count)
system.cpu.MemDepUnit__2.conflictingLoads            0                       # Number of conflicting loads. (Count)
system.cpu.MemDepUnit__2.conflictingStores            0                       # Number of conflicting stores. (Count)
system.cpu.MemDepUnit__3.insertedLoads              0                       # Number of loads inserted to the mem dependence unit. (Count)
system.cpu.MemDepUnit__3.insertedStores             0                       # Number of stores inserted to the mem dependence unit. (Count)
system.cpu.MemDepUnit__3.conflictingLoads            0                       # Number of conflicting loads. (Count)
system.cpu.MemDepUnit__3.conflictingStores            0                       # Number of conflicting stores. (Count)
system.cpu.branchPred.lookups                 3482106                       # Number of BP lookups (Count)
system.cpu.branchPred.condPredicted           3481930                       # Number of conditional branches predicted (Count)
system.cpu.branchPred.condIncorrect             33226                       # Number of conditional branches incorrect (Count)
system.cpu.branchPred.BTBLookups              3451971                       # Number of BTB lookups (Count)
system.cpu.branchPred.BTBUpdates                   45                       # Number of BTB updates (Count)
system.cpu.branchPred.BTBHits                 3451950                       # Number of BTB hits (Count)
system.cpu.branchPred.BTBHitRatio            0.999994                       # BTB Hit Ratio (Ratio)
system.cpu.branchPred.RASUsed                       8                       # Number of times the RAS was used to get a target. (Count)
system.cpu.branchPred.RASIncorrect                  0                       # Number of incorrect RAS predictions. (Count)
system.cpu.branchPred.indirectLookups              71                       # Number of indirect predictor lookups. (Count)
system.cpu.branchPred.indirectHits                  7                       # Number of indirect target hits. (Count)
system.cpu.branchPred.indirectMisses               64                       # Number of indirect misses. (Count)
system.cpu.branchPred.indirectMispredicted            3                       # Number of mispredicted indirect branches. (Count)
system.cpu.commit.commitSquashedInsts          341016                       # The number of squashed insts skipped by commit (Count)
system.cpu.commit.commitNonSpecStalls               1                       # The number of times commit has been forced to stall to communicate backwards (Count)
system.cpu.commit.branchMispredicts             33221                       # The number of times a branch was mispredicted (Count)
system.cpu.commit.numCommittedDist::samples    234030970                       # Number of insts commited each cycle (Count)
system.cpu.commit.numCommittedDist::mean     0.242729                       # Number of insts commited each cycle (Count)
system.cpu.commit.numCommittedDist::stdev     1.141618                       # Number of insts commited each cycle (Count)
system.cpu.commit.numCommittedDist::underflows            0      0.00%      0.00% # Number of insts commited each cycle (Count)
system.cpu.commit.numCommittedDist::0       216227564     92.39%     92.39% # Number of insts commited each cycle (Count)
system.cpu.commit.numCommittedDist::1         7672274      3.28%     95.67% # Number of insts commited each cycle (Count)
system.cpu.commit.numCommittedDist::2         4442314      1.90%     97.57% # Number of insts commited each cycle (Count)
system.cpu.commit.numCommittedDist::3            2626      0.00%     97.57% # Number of insts commited each cycle (Count)
system.cpu.commit.numCommittedDist::4            6249      0.00%     97.57% # Number of insts commited each cycle (Count)
system.cpu.commit.numCommittedDist::5         1311137      0.56%     98.13% # Number of insts commited each cycle (Count)
system.cpu.commit.numCommittedDist::6           99936      0.04%     98.18% # Number of insts commited each cycle (Count)
system.cpu.commit.numCommittedDist::7         1089985      0.47%     98.64% # Number of insts commited each cycle (Count)
system.cpu.commit.numCommittedDist::8         3178885      1.36%    100.00% # Number of insts commited each cycle (Count)
system.cpu.commit.numCommittedDist::overflows            0      0.00%    100.00% # Number of insts commited each cycle (Count)
system.cpu.commit.numCommittedDist::min_value            0                       # Number of insts commited each cycle (Count)
system.cpu.commit.numCommittedDist::max_value            8                       # Number of insts commited each cycle (Count)
system.cpu.commit.numCommittedDist::total    234030970                       # Number of insts commited each cycle (Count)
system.cpu.commit.instsCommitted             46853813                       # Number of instructions committed (Count)
system.cpu.commit.opsCommitted               56806052                       # Number of ops (including micro ops) committed (Count)
system.cpu.commit.memRefs                    13270425                       # Number of memory references committed (Count)
system.cpu.commit.loads                       9950438                       # Number of loads committed (Count)
system.cpu.commit.amos                              0                       # Number of atomic instructions committed (Count)
system.cpu.commit.membars                           0                       # Number of memory barriers committed (Count)
system.cpu.commit.branches                    3378787                       # Number of branches committed (Count)
system.cpu.commit.vectorInstructions         29860812                       # Number of committed Vector instructions. (Count)
system.cpu.commit.floating                          0                       # Number of committed floating point instructions. (Count)
system.cpu.commit.integer                    36836387                       # Number of committed integer instructions. (Count)
system.cpu.commit.functionCalls                     1                       # Number of function calls committed. (Count)
system.cpu.commit.committedInstType_0::No_OpClass      3316320      5.84%      5.84% # Class of committed instruction (Count)
system.cpu.commit.committedInstType_0::IntAlu     20311625     35.76%     41.59% # Class of committed instruction (Count)
system.cpu.commit.committedInstType_0::IntMult           98      0.00%     41.59% # Class of committed instruction (Count)
system.cpu.commit.committedInstType_0::IntDiv            0      0.00%     41.59% # Class of committed instruction (Count)
system.cpu.commit.committedInstType_0::FloatAdd            0      0.00%     41.59% # Class of committed instruction (Count)
system.cpu.commit.committedInstType_0::FloatCmp            0      0.00%     41.59% # Class of committed instruction (Count)
system.cpu.commit.committedInstType_0::FloatCvt            0      0.00%     41.59% # Class of committed instruction (Count)
system.cpu.commit.committedInstType_0::FloatMult            0      0.00%     41.59% # Class of committed instruction (Count)
system.cpu.commit.committedInstType_0::FloatMultAcc            0      0.00%     41.59% # Class of committed instruction (Count)
system.cpu.commit.committedInstType_0::FloatDiv            0      0.00%     41.59% # Class of committed instruction (Count)
system.cpu.commit.committedInstType_0::FloatMisc            0      0.00%     41.59% # Class of committed instruction (Count)
system.cpu.commit.committedInstType_0::FloatSqrt            0      0.00%     41.59% # Class of committed instruction (Count)
system.cpu.commit.committedInstType_0::SimdAdd      6640384     11.69%     53.28% # Class of committed instruction (Count)
system.cpu.commit.committedInstType_0::SimdAddAcc            0      0.00%     53.28% # Class of committed instruction (Count)
system.cpu.commit.committedInstType_0::SimdAlu         1632      0.00%     53.29% # Class of committed instruction (Count)
system.cpu.commit.committedInstType_0::SimdCmp            0      0.00%     53.29% # Class of committed instruction (Count)
system.cpu.commit.committedInstType_0::SimdCvt            0      0.00%     53.29% # Class of committed instruction (Count)
system.cpu.commit.committedInstType_0::SimdMisc      6632928     11.68%     64.96% # Class of committed instruction (Count)
system.cpu.commit.committedInstType_0::SimdMult      6632640     11.68%     76.64% # Class of committed instruction (Count)
system.cpu.commit.committedInstType_0::SimdMultAcc            0      0.00%     76.64% # Class of committed instruction (Count)
system.cpu.commit.committedInstType_0::SimdShift            0      0.00%     76.64% # Class of committed instruction (Count)
system.cpu.commit.committedInstType_0::SimdShiftAcc            0      0.00%     76.64% # Class of committed instruction (Count)
system.cpu.commit.committedInstType_0::SimdDiv            0      0.00%     76.64% # Class of committed instruction (Count)
system.cpu.commit.committedInstType_0::SimdSqrt            0      0.00%     76.64% # Class of committed instruction (Count)
system.cpu.commit.committedInstType_0::SimdFloatAdd            0      0.00%     76.64% # Class of committed instruction (Count)
system.cpu.commit.committedInstType_0::SimdFloatAlu            0      0.00%     76.64% # Class of committed instruction (Count)
system.cpu.commit.committedInstType_0::SimdFloatCmp            0      0.00%     76.64% # Class of committed instruction (Count)
system.cpu.commit.committedInstType_0::SimdFloatCvt            0      0.00%     76.64% # Class of committed instruction (Count)
system.cpu.commit.committedInstType_0::SimdFloatDiv            0      0.00%     76.64% # Class of committed instruction (Count)
system.cpu.commit.committedInstType_0::SimdFloatMisc            0      0.00%     76.64% # Class of committed instruction (Count)
system.cpu.commit.committedInstType_0::SimdFloatMult            0      0.00%     76.64% # Class of committed instruction (Count)
system.cpu.commit.committedInstType_0::SimdFloatMultAcc            0      0.00%     76.64% # Class of committed instruction (Count)
system.cpu.commit.committedInstType_0::SimdFloatSqrt            0      0.00%     76.64% # Class of committed instruction (Count)
system.cpu.commit.committedInstType_0::SimdReduceAdd            0      0.00%     76.64% # Class of committed instruction (Count)
system.cpu.commit.committedInstType_0::SimdReduceAlu            0      0.00%     76.64% # Class of committed instruction (Count)
system.cpu.commit.committedInstType_0::SimdReduceCmp            0      0.00%     76.64% # Class of committed instruction (Count)
system.cpu.commit.committedInstType_0::SimdFloatReduceAdd            0      0.00%     76.64% # Class of committed instruction (Count)
system.cpu.commit.committedInstType_0::SimdFloatReduceCmp            0      0.00%     76.64% # Class of committed instruction (Count)
system.cpu.commit.committedInstType_0::SimdAes            0      0.00%     76.64% # Class of committed instruction (Count)
system.cpu.commit.committedInstType_0::SimdAesMix            0      0.00%     76.64% # Class of committed instruction (Count)
system.cpu.commit.committedInstType_0::SimdSha1Hash            0      0.00%     76.64% # Class of committed instruction (Count)
system.cpu.commit.committedInstType_0::SimdSha1Hash2            0      0.00%     76.64% # Class of committed instruction (Count)
system.cpu.commit.committedInstType_0::SimdSha256Hash            0      0.00%     76.64% # Class of committed instruction (Count)
system.cpu.commit.committedInstType_0::SimdSha256Hash2            0      0.00%     76.64% # Class of committed instruction (Count)
system.cpu.commit.committedInstType_0::SimdShaSigma2            0      0.00%     76.64% # Class of committed instruction (Count)
system.cpu.commit.committedInstType_0::SimdShaSigma3            0      0.00%     76.64% # Class of committed instruction (Count)
system.cpu.commit.committedInstType_0::SimdPredAlu            0      0.00%     76.64% # Class of committed instruction (Count)
system.cpu.commit.committedInstType_0::MemRead      9950438     17.52%     94.16% # Class of committed instruction (Count)
system.cpu.commit.committedInstType_0::MemWrite      3319987      5.84%    100.00% # Class of committed instruction (Count)
system.cpu.commit.committedInstType_0::FloatMemRead            0      0.00%    100.00% # Class of committed instruction (Count)
system.cpu.commit.committedInstType_0::FloatMemWrite            0      0.00%    100.00% # Class of committed instruction (Count)
system.cpu.commit.committedInstType_0::IprAccess            0      0.00%    100.00% # Class of committed instruction (Count)
system.cpu.commit.committedInstType_0::InstPrefetch            0      0.00%    100.00% # Class of committed instruction (Count)
system.cpu.commit.committedInstType_0::total     56806052                       # Class of committed instruction (Count)
system.cpu.commit.commitEligibleSamples       3178885                       # number cycles where commit BW limit reached (Cycle)
system.cpu.dcache.demandHits::cpu.data        3870567                       # number of demand (read+write) hits (Count)
system.cpu.dcache.demandHits::total           3870567                       # number of demand (read+write) hits (Count)
system.cpu.dcache.overallHits::cpu.data       3870567                       # number of overall hits (Count)
system.cpu.dcache.overallHits::total          3870567                       # number of overall hits (Count)
system.cpu.dcache.demandMisses::cpu.data      9411716                       # number of demand (read+write) misses (Count)
system.cpu.dcache.demandMisses::total         9411716                       # number of demand (read+write) misses (Count)
system.cpu.dcache.overallMisses::cpu.data      9411716                       # number of overall misses (Count)
system.cpu.dcache.overallMisses::total        9411716                       # number of overall misses (Count)
system.cpu.dcache.demandMissLatency::cpu.data 646531788399                       # number of demand (read+write) miss ticks (Tick)
system.cpu.dcache.demandMissLatency::total 646531788399                       # number of demand (read+write) miss ticks (Tick)
system.cpu.dcache.overallMissLatency::cpu.data 646531788399                       # number of overall miss ticks (Tick)
system.cpu.dcache.overallMissLatency::total 646531788399                       # number of overall miss ticks (Tick)
system.cpu.dcache.demandAccesses::cpu.data     13282283                       # number of demand (read+write) accesses (Count)
system.cpu.dcache.demandAccesses::total      13282283                       # number of demand (read+write) accesses (Count)
system.cpu.dcache.overallAccesses::cpu.data     13282283                       # number of overall (read+write) accesses (Count)
system.cpu.dcache.overallAccesses::total     13282283                       # number of overall (read+write) accesses (Count)
system.cpu.dcache.demandMissRate::cpu.data     0.708592                       # miss rate for demand accesses (Ratio)
system.cpu.dcache.demandMissRate::total      0.708592                       # miss rate for demand accesses (Ratio)
system.cpu.dcache.overallMissRate::cpu.data     0.708592                       # miss rate for overall accesses (Ratio)
system.cpu.dcache.overallMissRate::total     0.708592                       # miss rate for overall accesses (Ratio)
system.cpu.dcache.demandAvgMissLatency::cpu.data 68694.358011                       # average overall miss latency in ticks ((Tick/Count))
system.cpu.dcache.demandAvgMissLatency::total 68694.358011                       # average overall miss latency in ticks ((Tick/Count))
system.cpu.dcache.overallAvgMissLatency::cpu.data 68694.358011                       # average overall miss latency ((Tick/Count))
system.cpu.dcache.overallAvgMissLatency::total 68694.358011                       # average overall miss latency ((Tick/Count))
system.cpu.dcache.blockedCycles::no_mshrs    224213277                       # number of cycles access was blocked (Cycle)
system.cpu.dcache.blockedCycles::no_targets            0                       # number of cycles access was blocked (Cycle)
system.cpu.dcache.blockedCauses::no_mshrs      5012065                       # number of times access was blocked (Count)
system.cpu.dcache.blockedCauses::no_targets            0                       # number of times access was blocked (Count)
system.cpu.dcache.avgBlocked::no_mshrs      44.734711                       # average number of cycles each access was blocked ((Cycle/Count))
system.cpu.dcache.avgBlocked::no_targets          nan                       # average number of cycles each access was blocked ((Cycle/Count))
system.cpu.dcache.writebacks::writebacks      3317608                       # number of writebacks (Count)
system.cpu.dcache.writebacks::total           3317608                       # number of writebacks (Count)
system.cpu.dcache.demandMshrHits::cpu.data      4397609                       # number of demand (read+write) MSHR hits (Count)
system.cpu.dcache.demandMshrHits::total       4397609                       # number of demand (read+write) MSHR hits (Count)
system.cpu.dcache.overallMshrHits::cpu.data      4397609                       # number of overall MSHR hits (Count)
system.cpu.dcache.overallMshrHits::total      4397609                       # number of overall MSHR hits (Count)
system.cpu.dcache.demandMshrMisses::cpu.data      5014107                       # number of demand (read+write) MSHR misses (Count)
system.cpu.dcache.demandMshrMisses::total      5014107                       # number of demand (read+write) MSHR misses (Count)
system.cpu.dcache.overallMshrMisses::cpu.data      5014107                       # number of overall MSHR misses (Count)
system.cpu.dcache.overallMshrMisses::total      5014107                       # number of overall MSHR misses (Count)
system.cpu.dcache.demandMshrMissLatency::cpu.data 463220190481                       # number of demand (read+write) MSHR miss ticks (Tick)
system.cpu.dcache.demandMshrMissLatency::total 463220190481                       # number of demand (read+write) MSHR miss ticks (Tick)
system.cpu.dcache.overallMshrMissLatency::cpu.data 463220190481                       # number of overall MSHR miss ticks (Tick)
system.cpu.dcache.overallMshrMissLatency::total 463220190481                       # number of overall MSHR miss ticks (Tick)
system.cpu.dcache.demandMshrMissRate::cpu.data     0.377503                       # mshr miss ratio for demand accesses (Ratio)
system.cpu.dcache.demandMshrMissRate::total     0.377503                       # mshr miss ratio for demand accesses (Ratio)
system.cpu.dcache.overallMshrMissRate::cpu.data     0.377503                       # mshr miss ratio for overall accesses (Ratio)
system.cpu.dcache.overallMshrMissRate::total     0.377503                       # mshr miss ratio for overall accesses (Ratio)
system.cpu.dcache.demandAvgMshrMissLatency::cpu.data 92383.387606                       # average overall mshr miss latency ((Tick/Count))
system.cpu.dcache.demandAvgMshrMissLatency::total 92383.387606                       # average overall mshr miss latency ((Tick/Count))
system.cpu.dcache.overallAvgMshrMissLatency::cpu.data 92383.387606                       # average overall mshr miss latency ((Tick/Count))
system.cpu.dcache.overallAvgMshrMissLatency::total 92383.387606                       # average overall mshr miss latency ((Tick/Count))
system.cpu.dcache.replacements                5014103                       # number of replacements (Count)
system.cpu.dcache.ReadReq.hits::cpu.data       552461                       # number of ReadReq hits (Count)
system.cpu.dcache.ReadReq.hits::total          552461                       # number of ReadReq hits (Count)
system.cpu.dcache.ReadReq.misses::cpu.data      9409835                       # number of ReadReq misses (Count)
system.cpu.dcache.ReadReq.misses::total       9409835                       # number of ReadReq misses (Count)
system.cpu.dcache.ReadReq.missLatency::cpu.data 646417906000                       # number of ReadReq miss ticks (Tick)
system.cpu.dcache.ReadReq.missLatency::total 646417906000                       # number of ReadReq miss ticks (Tick)
system.cpu.dcache.ReadReq.accesses::cpu.data      9962296                       # number of ReadReq accesses(hits+misses) (Count)
system.cpu.dcache.ReadReq.accesses::total      9962296                       # number of ReadReq accesses(hits+misses) (Count)
system.cpu.dcache.ReadReq.missRate::cpu.data     0.944545                       # miss rate for ReadReq accesses (Ratio)
system.cpu.dcache.ReadReq.missRate::total     0.944545                       # miss rate for ReadReq accesses (Ratio)
system.cpu.dcache.ReadReq.avgMissLatency::cpu.data 68695.987337                       # average ReadReq miss latency ((Tick/Count))
system.cpu.dcache.ReadReq.avgMissLatency::total 68695.987337                       # average ReadReq miss latency ((Tick/Count))
system.cpu.dcache.ReadReq.mshrHits::cpu.data      4396139                       # number of ReadReq MSHR hits (Count)
system.cpu.dcache.ReadReq.mshrHits::total      4396139                       # number of ReadReq MSHR hits (Count)
system.cpu.dcache.ReadReq.mshrMisses::cpu.data      5013696                       # number of ReadReq MSHR misses (Count)
system.cpu.dcache.ReadReq.mshrMisses::total      5013696                       # number of ReadReq MSHR misses (Count)
system.cpu.dcache.ReadReq.mshrMissLatency::cpu.data 463195637500                       # number of ReadReq MSHR miss ticks (Tick)
system.cpu.dcache.ReadReq.mshrMissLatency::total 463195637500                       # number of ReadReq MSHR miss ticks (Tick)
system.cpu.dcache.ReadReq.mshrMissRate::cpu.data     0.503267                       # mshr miss rate for ReadReq accesses (Ratio)
system.cpu.dcache.ReadReq.mshrMissRate::total     0.503267                       # mshr miss rate for ReadReq accesses (Ratio)
system.cpu.dcache.ReadReq.avgMshrMissLatency::cpu.data 92386.063595                       # average ReadReq mshr miss latency ((Tick/Count))
system.cpu.dcache.ReadReq.avgMshrMissLatency::total 92386.063595                       # average ReadReq mshr miss latency ((Tick/Count))
system.cpu.dcache.WriteReq.hits::cpu.data      3318106                       # number of WriteReq hits (Count)
system.cpu.dcache.WriteReq.hits::total        3318106                       # number of WriteReq hits (Count)
system.cpu.dcache.WriteReq.misses::cpu.data         1881                       # number of WriteReq misses (Count)
system.cpu.dcache.WriteReq.misses::total         1881                       # number of WriteReq misses (Count)
system.cpu.dcache.WriteReq.missLatency::cpu.data    113882399                       # number of WriteReq miss ticks (Tick)
system.cpu.dcache.WriteReq.missLatency::total    113882399                       # number of WriteReq miss ticks (Tick)
system.cpu.dcache.WriteReq.accesses::cpu.data      3319987                       # number of WriteReq accesses(hits+misses) (Count)
system.cpu.dcache.WriteReq.accesses::total      3319987                       # number of WriteReq accesses(hits+misses) (Count)
system.cpu.dcache.WriteReq.missRate::cpu.data     0.000567                       # miss rate for WriteReq accesses (Ratio)
system.cpu.dcache.WriteReq.missRate::total     0.000567                       # miss rate for WriteReq accesses (Ratio)
system.cpu.dcache.WriteReq.avgMissLatency::cpu.data 60543.540138                       # average WriteReq miss latency ((Tick/Count))
system.cpu.dcache.WriteReq.avgMissLatency::total 60543.540138                       # average WriteReq miss latency ((Tick/Count))
system.cpu.dcache.WriteReq.mshrHits::cpu.data         1470                       # number of WriteReq MSHR hits (Count)
system.cpu.dcache.WriteReq.mshrHits::total         1470                       # number of WriteReq MSHR hits (Count)
system.cpu.dcache.WriteReq.mshrMisses::cpu.data          411                       # number of WriteReq MSHR misses (Count)
system.cpu.dcache.WriteReq.mshrMisses::total          411                       # number of WriteReq MSHR misses (Count)
system.cpu.dcache.WriteReq.mshrMissLatency::cpu.data     24552981                       # number of WriteReq MSHR miss ticks (Tick)
system.cpu.dcache.WriteReq.mshrMissLatency::total     24552981                       # number of WriteReq MSHR miss ticks (Tick)
system.cpu.dcache.WriteReq.mshrMissRate::cpu.data     0.000124                       # mshr miss rate for WriteReq accesses (Ratio)
system.cpu.dcache.WriteReq.mshrMissRate::total     0.000124                       # mshr miss rate for WriteReq accesses (Ratio)
system.cpu.dcache.WriteReq.avgMshrMissLatency::cpu.data 59739.613139                       # average WriteReq mshr miss latency ((Tick/Count))
system.cpu.dcache.WriteReq.avgMshrMissLatency::total 59739.613139                       # average WriteReq mshr miss latency ((Tick/Count))
system.cpu.dcache.power_state.pwrStateResidencyTicks::UNDEFINED 118036287500                       # Cumulative time (in ticks) in various power states (Tick)
system.cpu.dcache.tags.tagsInUse                 1024                       # Average ticks per tags in use ((Tick/Count))
system.cpu.dcache.tags.totalRefs              8937248                       # Total number of references to valid blocks. (Count)
system.cpu.dcache.tags.sampledRefs            5014103                       # Sample count of references to valid blocks. (Count)
system.cpu.dcache.tags.avgRefs               1.782422                       # Average number of references to valid blocks. ((Count/Count))
system.cpu.dcache.tags.warmupTick                   0                       # The tick when the warmup percentage was hit. (Tick)
system.cpu.dcache.tags.occupancies::cpu.data         1024                       # Average occupied blocks per tick, per requestor ((Count/Tick))
system.cpu.dcache.tags.avgOccs::cpu.data            1                       # Average percentage of cache occupancy ((Ratio/Tick))
system.cpu.dcache.tags.avgOccs::total               1                       # Average percentage of cache occupancy ((Ratio/Tick))
system.cpu.dcache.tags.occupanciesTaskId::1024         1024                       # Occupied blocks per task id (Count)
system.cpu.dcache.tags.ageTaskId_1024::0          363                       # Occupied blocks per task id, per block age (Count)
system.cpu.dcache.tags.ageTaskId_1024::1          632                       # Occupied blocks per task id, per block age (Count)
system.cpu.dcache.tags.ageTaskId_1024::2           21                       # Occupied blocks per task id, per block age (Count)
system.cpu.dcache.tags.ageTaskId_1024::3            4                       # Occupied blocks per task id, per block age (Count)
system.cpu.dcache.tags.ageTaskId_1024::4            4                       # Occupied blocks per task id, per block age (Count)
system.cpu.dcache.tags.ratioOccsTaskId::1024            1                       # Ratio of occupied blocks and all blocks, per task id (Ratio)
system.cpu.dcache.tags.tagAccesses           58143235                       # Number of tag accesses (Count)
system.cpu.dcache.tags.dataAccesses          58143235                       # Number of data accesses (Count)
system.cpu.dcache.tags.power_state.pwrStateResidencyTicks::UNDEFINED 118036287500                       # Cumulative time (in ticks) in various power states (Tick)
system.cpu.decode.idleCycles                  1930223                       # Number of cycles decode is idle (Cycle)
system.cpu.decode.blockedCycles             224850851                       # Number of cycles decode is blocked (Cycle)
system.cpu.decode.runCycles                   2680735                       # Number of cycles decode is running (Cycle)
system.cpu.decode.unblockCycles               4592502                       # Number of cycles decode is unblocking (Cycle)
system.cpu.decode.squashCycles                  34137                       # Number of cycles decode is squashing (Cycle)
system.cpu.decode.branchResolved              3382020                       # Number of times decode resolved a branch (Count)
system.cpu.decode.branchMispred                     5                       # Number of times decode detected a branch misprediction (Count)
system.cpu.decode.decodedInsts               57571743                       # Number of instructions handled by decode (Count)
system.cpu.decode.squashedInsts                    15                       # Number of squashed instructions handled by decode (Count)
system.cpu.fetch.icacheStallCycles            2392521                       # Number of cycles fetch is stalled on an Icache miss (Cycle)
system.cpu.fetch.insts                       48424982                       # Number of instructions fetch has processed (Count)
system.cpu.fetch.branches                     3482106                       # Number of branches that fetch encountered (Count)
system.cpu.fetch.predictedBranches            3451965                       # Number of branches that fetch has predicted taken (Count)
system.cpu.fetch.cycles                     231661785                       # Number of cycles fetch has run and was not squashing or blocked (Cycle)
system.cpu.fetch.squashCycles                   68284                       # Number of cycles fetch has spent squashing (Cycle)
system.cpu.fetch.cacheLines                   2367673                       # Number of cache lines fetched (Count)
system.cpu.fetch.icacheSquashes                  7074                       # Number of outstanding Icache misses that were squashed (Count)
system.cpu.fetch.nisnDist::samples          234088448                       # Number of instructions fetched each cycle (Total) (Count)
system.cpu.fetch.nisnDist::mean              0.250909                       # Number of instructions fetched each cycle (Total) (Count)
system.cpu.fetch.nisnDist::stdev             1.280268                       # Number of instructions fetched each cycle (Total) (Count)
system.cpu.fetch.nisnDist::underflows               0      0.00%      0.00% # Number of instructions fetched each cycle (Total) (Count)
system.cpu.fetch.nisnDist::0                223320238     95.40%     95.40% # Number of instructions fetched each cycle (Total) (Count)
system.cpu.fetch.nisnDist::1                  1252509      0.54%     95.93% # Number of instructions fetched each cycle (Total) (Count)
system.cpu.fetch.nisnDist::2                  1257578      0.54%     96.47% # Number of instructions fetched each cycle (Total) (Count)
system.cpu.fetch.nisnDist::3                   869725      0.37%     96.84% # Number of instructions fetched each cycle (Total) (Count)
system.cpu.fetch.nisnDist::4                   617272      0.26%     97.11% # Number of instructions fetched each cycle (Total) (Count)
system.cpu.fetch.nisnDist::5                   616518      0.26%     97.37% # Number of instructions fetched each cycle (Total) (Count)
system.cpu.fetch.nisnDist::6                   795325      0.34%     97.71% # Number of instructions fetched each cycle (Total) (Count)
system.cpu.fetch.nisnDist::7                   839800      0.36%     98.07% # Number of instructions fetched each cycle (Total) (Count)
system.cpu.fetch.nisnDist::8                  4519483      1.93%    100.00% # Number of instructions fetched each cycle (Total) (Count)
system.cpu.fetch.nisnDist::overflows                0      0.00%    100.00% # Number of instructions fetched each cycle (Total) (Count)
system.cpu.fetch.nisnDist::min_value                0                       # Number of instructions fetched each cycle (Total) (Count)
system.cpu.fetch.nisnDist::max_value                8                       # Number of instructions fetched each cycle (Total) (Count)
system.cpu.fetch.nisnDist::total            234088448                       # Number of instructions fetched each cycle (Total) (Count)
system.cpu.fetch.branchRate                  0.014875                       # Number of branch fetches per cycle (Ratio)
system.cpu.fetch.rate                        0.206863                       # Number of inst fetches per cycle ((Count/Cycle))
system.cpu.icache.demandHits::cpu.inst        2367637                       # number of demand (read+write) hits (Count)
system.cpu.icache.demandHits::total           2367637                       # number of demand (read+write) hits (Count)
system.cpu.icache.overallHits::cpu.inst       2367637                       # number of overall hits (Count)
system.cpu.icache.overallHits::total          2367637                       # number of overall hits (Count)
system.cpu.icache.demandMisses::cpu.inst           36                       # number of demand (read+write) misses (Count)
system.cpu.icache.demandMisses::total              36                       # number of demand (read+write) misses (Count)
system.cpu.icache.overallMisses::cpu.inst           36                       # number of overall misses (Count)
system.cpu.icache.overallMisses::total             36                       # number of overall misses (Count)
system.cpu.icache.demandMissLatency::cpu.inst      3243000                       # number of demand (read+write) miss ticks (Tick)
system.cpu.icache.demandMissLatency::total      3243000                       # number of demand (read+write) miss ticks (Tick)
system.cpu.icache.overallMissLatency::cpu.inst      3243000                       # number of overall miss ticks (Tick)
system.cpu.icache.overallMissLatency::total      3243000                       # number of overall miss ticks (Tick)
system.cpu.icache.demandAccesses::cpu.inst      2367673                       # number of demand (read+write) accesses (Count)
system.cpu.icache.demandAccesses::total       2367673                       # number of demand (read+write) accesses (Count)
system.cpu.icache.overallAccesses::cpu.inst      2367673                       # number of overall (read+write) accesses (Count)
system.cpu.icache.overallAccesses::total      2367673                       # number of overall (read+write) accesses (Count)
system.cpu.icache.demandMissRate::cpu.inst     0.000015                       # miss rate for demand accesses (Ratio)
system.cpu.icache.demandMissRate::total      0.000015                       # miss rate for demand accesses (Ratio)
system.cpu.icache.overallMissRate::cpu.inst     0.000015                       # miss rate for overall accesses (Ratio)
system.cpu.icache.overallMissRate::total     0.000015                       # miss rate for overall accesses (Ratio)
system.cpu.icache.demandAvgMissLatency::cpu.inst 90083.333333                       # average overall miss latency in ticks ((Tick/Count))
system.cpu.icache.demandAvgMissLatency::total 90083.333333                       # average overall miss latency in ticks ((Tick/Count))
system.cpu.icache.overallAvgMissLatency::cpu.inst 90083.333333                       # average overall miss latency ((Tick/Count))
system.cpu.icache.overallAvgMissLatency::total 90083.333333                       # average overall miss latency ((Tick/Count))
system.cpu.icache.blockedCycles::no_mshrs            0                       # number of cycles access was blocked (Cycle)
system.cpu.icache.blockedCycles::no_targets            0                       # number of cycles access was blocked (Cycle)
system.cpu.icache.blockedCauses::no_mshrs            0                       # number of times access was blocked (Count)
system.cpu.icache.blockedCauses::no_targets            0                       # number of times access was blocked (Count)
system.cpu.icache.avgBlocked::no_mshrs            nan                       # average number of cycles each access was blocked ((Cycle/Count))
system.cpu.icache.avgBlocked::no_targets          nan                       # average number of cycles each access was blocked ((Cycle/Count))
system.cpu.icache.writebacks::writebacks           34                       # number of writebacks (Count)
system.cpu.icache.writebacks::total                34                       # number of writebacks (Count)
system.cpu.icache.demandMshrHits::cpu.inst            1                       # number of demand (read+write) MSHR hits (Count)
system.cpu.icache.demandMshrHits::total             1                       # number of demand (read+write) MSHR hits (Count)
system.cpu.icache.overallMshrHits::cpu.inst            1                       # number of overall MSHR hits (Count)
system.cpu.icache.overallMshrHits::total            1                       # number of overall MSHR hits (Count)
system.cpu.icache.demandMshrMisses::cpu.inst           35                       # number of demand (read+write) MSHR misses (Count)
system.cpu.icache.demandMshrMisses::total           35                       # number of demand (read+write) MSHR misses (Count)
system.cpu.icache.overallMshrMisses::cpu.inst           35                       # number of overall MSHR misses (Count)
system.cpu.icache.overallMshrMisses::total           35                       # number of overall MSHR misses (Count)
system.cpu.icache.demandMshrMissLatency::cpu.inst      3142000                       # number of demand (read+write) MSHR miss ticks (Tick)
system.cpu.icache.demandMshrMissLatency::total      3142000                       # number of demand (read+write) MSHR miss ticks (Tick)
system.cpu.icache.overallMshrMissLatency::cpu.inst      3142000                       # number of overall MSHR miss ticks (Tick)
system.cpu.icache.overallMshrMissLatency::total      3142000                       # number of overall MSHR miss ticks (Tick)
system.cpu.icache.demandMshrMissRate::cpu.inst     0.000015                       # mshr miss ratio for demand accesses (Ratio)
system.cpu.icache.demandMshrMissRate::total     0.000015                       # mshr miss ratio for demand accesses (Ratio)
system.cpu.icache.overallMshrMissRate::cpu.inst     0.000015                       # mshr miss ratio for overall accesses (Ratio)
system.cpu.icache.overallMshrMissRate::total     0.000015                       # mshr miss ratio for overall accesses (Ratio)
system.cpu.icache.demandAvgMshrMissLatency::cpu.inst 89771.428571                       # average overall mshr miss latency ((Tick/Count))
system.cpu.icache.demandAvgMshrMissLatency::total 89771.428571                       # average overall mshr miss latency ((Tick/Count))
system.cpu.icache.overallAvgMshrMissLatency::cpu.inst 89771.428571                       # average overall mshr miss latency ((Tick/Count))
system.cpu.icache.overallAvgMshrMissLatency::total 89771.428571                       # average overall mshr miss latency ((Tick/Count))
system.cpu.icache.replacements                     34                       # number of replacements (Count)
system.cpu.icache.ReadReq.hits::cpu.inst      2367637                       # number of ReadReq hits (Count)
system.cpu.icache.ReadReq.hits::total         2367637                       # number of ReadReq hits (Count)
system.cpu.icache.ReadReq.misses::cpu.inst           36                       # number of ReadReq misses (Count)
system.cpu.icache.ReadReq.misses::total            36                       # number of ReadReq misses (Count)
system.cpu.icache.ReadReq.missLatency::cpu.inst      3243000                       # number of ReadReq miss ticks (Tick)
system.cpu.icache.ReadReq.missLatency::total      3243000                       # number of ReadReq miss ticks (Tick)
system.cpu.icache.ReadReq.accesses::cpu.inst      2367673                       # number of ReadReq accesses(hits+misses) (Count)
system.cpu.icache.ReadReq.accesses::total      2367673                       # number of ReadReq accesses(hits+misses) (Count)
system.cpu.icache.ReadReq.missRate::cpu.inst     0.000015                       # miss rate for ReadReq accesses (Ratio)
system.cpu.icache.ReadReq.missRate::total     0.000015                       # miss rate for ReadReq accesses (Ratio)
system.cpu.icache.ReadReq.avgMissLatency::cpu.inst 90083.333333                       # average ReadReq miss latency ((Tick/Count))
system.cpu.icache.ReadReq.avgMissLatency::total 90083.333333                       # average ReadReq miss latency ((Tick/Count))
system.cpu.icache.ReadReq.mshrHits::cpu.inst            1                       # number of ReadReq MSHR hits (Count)
system.cpu.icache.ReadReq.mshrHits::total            1                       # number of ReadReq MSHR hits (Count)
system.cpu.icache.ReadReq.mshrMisses::cpu.inst           35                       # number of ReadReq MSHR misses (Count)
system.cpu.icache.ReadReq.mshrMisses::total           35                       # number of ReadReq MSHR misses (Count)
system.cpu.icache.ReadReq.mshrMissLatency::cpu.inst      3142000                       # number of ReadReq MSHR miss ticks (Tick)
system.cpu.icache.ReadReq.mshrMissLatency::total      3142000                       # number of ReadReq MSHR miss ticks (Tick)
system.cpu.icache.ReadReq.mshrMissRate::cpu.inst     0.000015                       # mshr miss rate for ReadReq accesses (Ratio)
system.cpu.icache.ReadReq.mshrMissRate::total     0.000015                       # mshr miss rate for ReadReq accesses (Ratio)
system.cpu.icache.ReadReq.avgMshrMissLatency::cpu.inst 89771.428571                       # average ReadReq mshr miss latency ((Tick/Count))
system.cpu.icache.ReadReq.avgMshrMissLatency::total 89771.428571                       # average ReadReq mshr miss latency ((Tick/Count))
system.cpu.icache.power_state.pwrStateResidencyTicks::UNDEFINED 118036287500                       # Cumulative time (in ticks) in various power states (Tick)
system.cpu.icache.tags.tagsInUse                  256                       # Average ticks per tags in use ((Tick/Count))
system.cpu.icache.tags.totalRefs                 5775                       # Total number of references to valid blocks. (Count)
system.cpu.icache.tags.sampledRefs                 34                       # Sample count of references to valid blocks. (Count)
system.cpu.icache.tags.avgRefs             169.852941                       # Average number of references to valid blocks. ((Count/Count))
system.cpu.icache.tags.warmupTick                   0                       # The tick when the warmup percentage was hit. (Tick)
system.cpu.icache.tags.occupancies::cpu.inst          256                       # Average occupied blocks per tick, per requestor ((Count/Tick))
system.cpu.icache.tags.avgOccs::cpu.inst            1                       # Average percentage of cache occupancy ((Ratio/Tick))
system.cpu.icache.tags.avgOccs::total               1                       # Average percentage of cache occupancy ((Ratio/Tick))
system.cpu.icache.tags.occupanciesTaskId::1024          256                       # Occupied blocks per task id (Count)
system.cpu.icache.tags.ageTaskId_1024::4          256                       # Occupied blocks per task id, per block age (Count)
system.cpu.icache.tags.ratioOccsTaskId::1024            1                       # Ratio of occupied blocks and all blocks, per task id (Ratio)
system.cpu.icache.tags.tagAccesses            9470726                       # Number of tag accesses (Count)
system.cpu.icache.tags.dataAccesses           9470726                       # Number of data accesses (Count)
system.cpu.icache.tags.power_state.pwrStateResidencyTicks::UNDEFINED 118036287500                       # Cumulative time (in ticks) in various power states (Tick)
system.cpu.iew.idleCycles                           0                       # Number of cycles IEW is idle (Cycle)
system.cpu.iew.squashCycles                     34137                       # Number of cycles IEW is squashing (Cycle)
system.cpu.iew.blockCycles                  197781167                       # Number of cycles IEW is blocking (Cycle)
system.cpu.iew.unblockCycles                  3494537                       # Number of cycles IEW is unblocking (Cycle)
system.cpu.iew.dispatchedInsts               57149225                       # Number of instructions dispatched to IQ (Count)
system.cpu.iew.dispSquashedInsts                 7249                       # Number of squashed instructions skipped by dispatch (Count)
system.cpu.iew.dispLoadInsts                 10045130                       # Number of dispatched load instructions (Count)
system.cpu.iew.dispStoreInsts                 3327959                       # Number of dispatched store instructions (Count)
system.cpu.iew.dispNonSpecInsts                     9                       # Number of dispatched non-speculative instructions (Count)
system.cpu.iew.iqFullEvents                   2161344                       # Number of times the IQ has become full, causing a stall (Count)
system.cpu.iew.lsqFullEvents                     1934                       # Number of times the LSQ has become full, causing a stall (Count)
system.cpu.iew.memOrderViolationEvents              1                       # Number of memory order violations (Count)
system.cpu.iew.predictedTakenIncorrect          33186                       # Number of branches that were predicted taken incorrectly (Count)
system.cpu.iew.predictedNotTakenIncorrect           50                       # Number of branches that were predicted not taken incorrectly (Count)
system.cpu.iew.branchMispredicts                33236                       # Number of branch mispredicts detected at execute (Count)
system.cpu.iew.instsToCommit                 56877491                       # Cumulative count of insts sent to commit (Count)
system.cpu.iew.writebackCount                56871533                       # Cumulative count of insts written-back (Count)
system.cpu.iew.producerInst                  42797342                       # Number of instructions producing a value (Count)
system.cpu.iew.consumerInst                  55117671                       # Number of instructions consuming a value (Count)
system.cpu.iew.wbRate                        0.242945                       # Insts written-back per cycle ((Count/Cycle))
system.cpu.iew.wbFanout                      0.776472                       # Average fanout of values written-back ((Count/Count))
system.cpu.lsq0.forwLoads                           0                       # Number of loads that had data forwarded from stores (Count)
system.cpu.lsq0.squashedLoads                   94676                       # Number of loads squashed (Count)
system.cpu.lsq0.ignoredResponses                    0                       # Number of memory responses ignored because the instruction is squashed (Count)
system.cpu.lsq0.memOrderViolation                   1                       # Number of memory ordering violations (Count)
system.cpu.lsq0.squashedStores                   7963                       # Number of stores squashed (Count)
system.cpu.lsq0.rescheduledLoads                   43                       # Number of loads that were rescheduled (Count)
system.cpu.lsq0.blockedByCache                5011572                       # Number of times an access to memory failed due to the cache being blocked (Count)
system.cpu.lsq0.loadToUse::samples            9950438                       # Distribution of cycle latency between the first time a load is issued and its completion (Unspecified)
system.cpu.lsq0.loadToUse::mean            337.808373                       # Distribution of cycle latency between the first time a load is issued and its completion (Unspecified)
system.cpu.lsq0.loadToUse::stdev           140.865448                       # Distribution of cycle latency between the first time a load is issued and its completion (Unspecified)
system.cpu.lsq0.loadToUse::0-9                   1778      0.02%      0.02% # Distribution of cycle latency between the first time a load is issued and its completion (Unspecified)
system.cpu.lsq0.loadToUse::10-19                  719      0.01%      0.03% # Distribution of cycle latency between the first time a load is issued and its completion (Unspecified)
system.cpu.lsq0.loadToUse::20-29                 1172      0.01%      0.04% # Distribution of cycle latency between the first time a load is issued and its completion (Unspecified)
system.cpu.lsq0.loadToUse::30-39                  706      0.01%      0.04% # Distribution of cycle latency between the first time a load is issued and its completion (Unspecified)
system.cpu.lsq0.loadToUse::40-49                  703      0.01%      0.05% # Distribution of cycle latency between the first time a load is issued and its completion (Unspecified)
system.cpu.lsq0.loadToUse::50-59                  667      0.01%      0.06% # Distribution of cycle latency between the first time a load is issued and its completion (Unspecified)
system.cpu.lsq0.loadToUse::60-69                  529      0.01%      0.06% # Distribution of cycle latency between the first time a load is issued and its completion (Unspecified)
system.cpu.lsq0.loadToUse::70-79                  762      0.01%      0.07% # Distribution of cycle latency between the first time a load is issued and its completion (Unspecified)
system.cpu.lsq0.loadToUse::80-89                 1376      0.01%      0.08% # Distribution of cycle latency between the first time a load is issued and its completion (Unspecified)
system.cpu.lsq0.loadToUse::90-99                 1227      0.01%      0.10% # Distribution of cycle latency between the first time a load is issued and its completion (Unspecified)
system.cpu.lsq0.loadToUse::100-109               1182      0.01%      0.11% # Distribution of cycle latency between the first time a load is issued and its completion (Unspecified)
system.cpu.lsq0.loadToUse::110-119               1203      0.01%      0.12% # Distribution of cycle latency between the first time a load is issued and its completion (Unspecified)
system.cpu.lsq0.loadToUse::120-129               1600      0.02%      0.14% # Distribution of cycle latency between the first time a load is issued and its completion (Unspecified)
system.cpu.lsq0.loadToUse::130-139              12683      0.13%      0.26% # Distribution of cycle latency between the first time a load is issued and its completion (Unspecified)
system.cpu.lsq0.loadToUse::140-149              88448      0.89%      1.15% # Distribution of cycle latency between the first time a load is issued and its completion (Unspecified)
system.cpu.lsq0.loadToUse::150-159             232671      2.34%      3.49% # Distribution of cycle latency between the first time a load is issued and its completion (Unspecified)
system.cpu.lsq0.loadToUse::160-169             263559      2.65%      6.14% # Distribution of cycle latency between the first time a load is issued and its completion (Unspecified)
system.cpu.lsq0.loadToUse::170-179             394805      3.97%     10.11% # Distribution of cycle latency between the first time a load is issued and its completion (Unspecified)
system.cpu.lsq0.loadToUse::180-189             160997      1.62%     11.73% # Distribution of cycle latency between the first time a load is issued and its completion (Unspecified)
system.cpu.lsq0.loadToUse::190-199             234267      2.35%     14.08% # Distribution of cycle latency between the first time a load is issued and its completion (Unspecified)
system.cpu.lsq0.loadToUse::200-209             270563      2.72%     16.80% # Distribution of cycle latency between the first time a load is issued and its completion (Unspecified)
system.cpu.lsq0.loadToUse::210-219             224023      2.25%     19.05% # Distribution of cycle latency between the first time a load is issued and its completion (Unspecified)
system.cpu.lsq0.loadToUse::220-229             244030      2.45%     21.50% # Distribution of cycle latency between the first time a load is issued and its completion (Unspecified)
system.cpu.lsq0.loadToUse::230-239             202772      2.04%     23.54% # Distribution of cycle latency between the first time a load is issued and its completion (Unspecified)
system.cpu.lsq0.loadToUse::240-249             128057      1.29%     24.83% # Distribution of cycle latency between the first time a load is issued and its completion (Unspecified)
system.cpu.lsq0.loadToUse::250-259             233988      2.35%     27.18% # Distribution of cycle latency between the first time a load is issued and its completion (Unspecified)
system.cpu.lsq0.loadToUse::260-269             307752      3.09%     30.27% # Distribution of cycle latency between the first time a load is issued and its completion (Unspecified)
system.cpu.lsq0.loadToUse::270-279             344546      3.46%     33.74% # Distribution of cycle latency between the first time a load is issued and its completion (Unspecified)
system.cpu.lsq0.loadToUse::280-289             850447      8.55%     42.28% # Distribution of cycle latency between the first time a load is issued and its completion (Unspecified)
system.cpu.lsq0.loadToUse::290-299             725093      7.29%     49.57% # Distribution of cycle latency between the first time a load is issued and its completion (Unspecified)
system.cpu.lsq0.loadToUse::overflows          5018113     50.43%    100.00% # Distribution of cycle latency between the first time a load is issued and its completion (Unspecified)
system.cpu.lsq0.loadToUse::min_value                3                       # Distribution of cycle latency between the first time a load is issued and its completion (Unspecified)
system.cpu.lsq0.loadToUse::max_value             1507                       # Distribution of cycle latency between the first time a load is issued and its completion (Unspecified)
system.cpu.lsq0.loadToUse::total              9950438                       # Distribution of cycle latency between the first time a load is issued and its completion (Unspecified)
system.cpu.mmu.alignFaults                          0                       # Number of MMU faults due to alignment restrictions (Count)
system.cpu.mmu.prefetchFaults                       0                       # Number of MMU faults due to prefetch (Count)
system.cpu.mmu.domainFaults                         0                       # Number of MMU faults due to domain restrictions (Count)
[...]
system.mem_ctrls.dram.perBankWrBursts::10            8                       # Per bank write bursts (Count)
system.mem_ctrls.dram.perBankWrBursts::11           33                       # Per bank write bursts (Count)
system.mem_ctrls.dram.perBankWrBursts::12           17                       # Per bank write bursts (Count)
system.mem_ctrls.dram.perBankWrBursts::13           10                       # Per bank write bursts (Count)
system.mem_ctrls.dram.perBankWrBursts::14           20                       # Per bank write bursts (Count)
system.mem_ctrls.dram.perBankWrBursts::15           24                       # Per bank write bursts (Count)
system.mem_ctrls.dram.totQLat                10692500                       # Total ticks spent queuing (Tick)
system.mem_ctrls.dram.totBusLat               2640000                       # Total ticks spent in databus transfers (Tick)
system.mem_ctrls.dram.totMemAccLat           20592500                       # Total ticks spent from burst creation until serviced by the DRAM (Tick)
system.mem_ctrls.dram.avgQLat                20250.95                       # Average queueing delay per DRAM burst ((Tick/Count))
system.mem_ctrls.dram.avgBusLat               5000.00                       # Average bus latency per DRAM burst ((Tick/Count))
system.mem_ctrls.dram.avgMemAccLat           39000.95                       # Average memory access latency per DRAM burst ((Tick/Count))
system.mem_ctrls.dram.readRowHits                 312                       # Number of row buffer hits during reads (Count)
system.mem_ctrls.dram.writeRowHits                143                       # Number of row buffer hits during writes (Count)
system.mem_ctrls.dram.readRowHitRate            59.09                       # Row buffer hit rate for reads (Ratio)
system.mem_ctrls.dram.writeRowHitRate           59.34                       # Row buffer hit rate for writes (Ratio)
system.mem_ctrls.dram.bytesPerActivate::samples          319                       # Bytes accessed per row activation (Byte)
system.mem_ctrls.dram.bytesPerActivate::mean   161.103448                       # Bytes accessed per row activation (Byte)
system.mem_ctrls.dram.bytesPerActivate::gmean   117.901862                       # Bytes accessed per row activation (Byte)
system.mem_ctrls.dram.bytesPerActivate::stdev   160.247564                       # Bytes accessed per row activation (Byte)
system.mem_ctrls.dram.bytesPerActivate::0-127          161     50.47%     50.47% # Bytes accessed per row activation (Byte)
system.mem_ctrls.dram.bytesPerActivate::128-255           90     28.21%     78.68% # Bytes accessed per row activation (Byte)
system.mem_ctrls.dram.bytesPerActivate::256-383           38     11.91%     90.60% # Bytes accessed per row activation (Byte)
system.mem_ctrls.dram.bytesPerActivate::384-511           15      4.70%     95.30% # Bytes accessed per row activation (Byte)
system.mem_ctrls.dram.bytesPerActivate::512-639            5      1.57%     96.87% # Bytes accessed per row activation (Byte)
system.mem_ctrls.dram.bytesPerActivate::640-767            5      1.57%     98.43% # Bytes accessed per row activation (Byte)
system.mem_ctrls.dram.bytesPerActivate::768-895            1      0.31%     98.75% # Bytes accessed per row activation (Byte)
system.mem_ctrls.dram.bytesPerActivate::896-1023            2      0.63%     99.37% # Bytes accessed per row activation (Byte)
system.mem_ctrls.dram.bytesPerActivate::1024-1151            2      0.63%    100.00% # Bytes accessed per row activation (Byte)
system.mem_ctrls.dram.bytesPerActivate::total          319                       # Bytes accessed per row activation (Byte)
system.mem_ctrls.dram.bytesRead                 33792                       # Total bytes read (Byte)
system.mem_ctrls.dram.bytesWritten              15424                       # Total bytes written (Byte)
system.mem_ctrls.dram.avgRdBW             1216.042608                       # Average DRAM read bandwidth in MiBytes/s ((Byte/Second))
system.mem_ctrls.dram.avgWrBW              555.049751                       # Average DRAM write bandwidth in MiBytes/s ((Byte/Second))
system.mem_ctrls.dram.peakBW                 12800.00                       # Theoretical peak bandwidth in MiByte/s ((Byte/Second))
system.mem_ctrls.dram.busUtil                   13.84                       # Data bus utilization in percentage (Ratio)
system.mem_ctrls.dram.busUtilRead                9.50                       # Data bus utilization in percentage for reads (Ratio)
system.mem_ctrls.dram.busUtilWrite               4.34                       # Data bus utilization in percentage for writes (Ratio)
system.mem_ctrls.dram.pageHitRate               59.17                       # Row buffer hit rate, read and write combined (Ratio)
system.mem_ctrls.dram.power_state.pwrStateResidencyTicks::UNDEFINED     27788500                       # Cumulative time (in ticks) in various power states (Tick)
system.mem_ctrls.dram.rank0.actEnergy         1170960                       # Energy for activate commands per rank (pJ) (Joule)
system.mem_ctrls.dram.rank0.preEnergy          629970                       # Energy for precharge commands per rank (pJ) (Joule)
system.mem_ctrls.dram.rank0.readEnergy        2027760                       # Energy for read commands per rank (pJ) (Joule)
system.mem_ctrls.dram.rank0.writeEnergy        615960                       # Energy for write commands per rank (pJ) (Joule)
system.mem_ctrls.dram.rank0.refreshEnergy 2458560.000000                       # Energy for refresh commands per rank (pJ) (Joule)
system.mem_ctrls.dram.rank0.actBackEnergy     12621510                       # Energy for active background per rank (pJ) (Joule)
system.mem_ctrls.dram.rank0.preBackEnergy        42240                       # Energy for precharge background per rank (pJ) (Joule)
system.mem_ctrls.dram.rank0.actPowerDownEnergy            0                       # Energy for active power-down per rank (pJ) (Joule)
system.mem_ctrls.dram.rank0.prePowerDownEnergy            0                       # Energy for precharge power-down per rank (pJ) (Joule)
system.mem_ctrls.dram.rank0.selfRefreshEnergy            0                       # Energy for self refresh per rank (pJ) (Joule)
system.mem_ctrls.dram.rank0.totalEnergy      19566960                       # Total energy per rank (pJ) (Joule)
system.mem_ctrls.dram.rank0.averagePower   704.138762                       # Core power per rank (mW) (Watt)
system.mem_ctrls.dram.rank0.totalIdleTime            0                       # Total Idle time Per DRAM Rank (Tick)
system.mem_ctrls.dram.rank0.pwrStateTime::IDLE            0                       # Time in different power states (Tick)
system.mem_ctrls.dram.rank0.pwrStateTime::REF      1040000                       # Time in different power states (Tick)
system.mem_ctrls.dram.rank0.pwrStateTime::SREF            0                       # Time in different power states (Tick)
system.mem_ctrls.dram.rank0.pwrStateTime::PRE_PDN            0                       # Time in different power states (Tick)
system.mem_ctrls.dram.rank0.pwrStateTime::ACT     26748500                       # Time in different power states (Tick)
system.mem_ctrls.dram.rank0.pwrStateTime::ACT_PDN            0                       # Time in different power states (Tick)
system.mem_ctrls.dram.rank1.actEnergy         1071000                       # Energy for activate commands per rank (pJ) (Joule)
system.mem_ctrls.dram.rank1.preEnergy          580635                       # Energy for precharge commands per rank (pJ) (Joule)
system.mem_ctrls.dram.rank1.readEnergy        1742160                       # Energy for read commands per rank (pJ) (Joule)
system.mem_ctrls.dram.rank1.writeEnergy        642060                       # Energy for write commands per rank (pJ) (Joule)
system.mem_ctrls.dram.rank1.refreshEnergy 2458560.000000                       # Energy for refresh commands per rank (pJ) (Joule)
system.mem_ctrls.dram.rank1.actBackEnergy     12382680                       # Energy for active background per rank (pJ) (Joule)
system.mem_ctrls.dram.rank1.preBackEnergy       243360                       # Energy for precharge background per rank (pJ) (Joule)
system.mem_ctrls.dram.rank1.actPowerDownEnergy            0                       # Energy for active power-down per rank (pJ) (Joule)
system.mem_ctrls.dram.rank1.prePowerDownEnergy            0                       # Energy for precharge power-down per rank (pJ) (Joule)
system.mem_ctrls.dram.rank1.selfRefreshEnergy            0                       # Energy for self refresh per rank (pJ) (Joule)
system.mem_ctrls.dram.rank1.totalEnergy      19120455                       # Total energy per rank (pJ) (Joule)
system.mem_ctrls.dram.rank1.averagePower   688.070785                       # Core power per rank (mW) (Watt)
system.mem_ctrls.dram.rank1.totalIdleTime            0                       # Total Idle time Per DRAM Rank (Tick)
system.mem_ctrls.dram.rank1.pwrStateTime::IDLE       522250                       # Time in different power states (Tick)
system.mem_ctrls.dram.rank1.pwrStateTime::REF      1040000                       # Time in different power states (Tick)
system.mem_ctrls.dram.rank1.pwrStateTime::SREF            0                       # Time in different power states (Tick)
system.mem_ctrls.dram.rank1.pwrStateTime::PRE_PDN            0                       # Time in different power states (Tick)
system.mem_ctrls.dram.rank1.pwrStateTime::ACT     26226250                       # Time in different power states (Tick)
system.mem_ctrls.dram.rank1.pwrStateTime::ACT_PDN            0                       # Time in different power states (Tick)
system.mem_ctrls.power_state.pwrStateResidencyTicks::UNDEFINED     27788500                       # Cumulative time (in ticks) in various power states (Tick)
system.membus.transDist::ReadResp                 508                       # Transaction distribution (Count)
system.membus.transDist::WritebackDirty           239                       # Transaction distribution (Count)
system.membus.transDist::CleanEvict               461                       # Transaction distribution (Count)
system.membus.transDist::ReadExReq                 22                       # Transaction distribution (Count)
system.membus.transDist::ReadExResp                22                       # Transaction distribution (Count)
system.membus.transDist::ReadSharedReq            506                       # Transaction distribution (Count)
system.membus.transDist::InvalidateReq              2                       # Transaction distribution (Count)
system.membus.pktCount_system.l2.mem_side_port::system.mem_ctrls.port         1760                       # Packet count per connected requestor and responder (Count)
system.membus.pktCount::total                    1760                       # Packet count per connected requestor and responder (Count)
system.membus.pktSize_system.l2.mem_side_port::system.mem_ctrls.port        49216                       # Cumulative packet size per connected requestor and responder (Byte)
system.membus.pktSize::total                    49216                       # Cumulative packet size per connected requestor and responder (Byte)
system.membus.snoops                                0                       # Total snoops (Count)
system.membus.snoopTraffic                          0                       # Total snoop traffic (Byte)
system.membus.snoopFanout::samples                530                       # Request fanout histogram (Count)
system.membus.snoopFanout::mean                     0                       # Request fanout histogram (Count)
system.membus.snoopFanout::stdev                    0                       # Request fanout histogram (Count)
system.membus.snoopFanout::underflows               0      0.00%      0.00% # Request fanout histogram (Count)
system.membus.snoopFanout::0                      530    100.00%    100.00% # Request fanout histogram (Count)
system.membus.snoopFanout::1                        0      0.00%    100.00% # Request fanout histogram (Count)
system.membus.snoopFanout::overflows                0      0.00%    100.00% # Request fanout histogram (Count)
system.membus.snoopFanout::min_value                0                       # Request fanout histogram (Count)
system.membus.snoopFanout::max_value                0                       # Request fanout histogram (Count)
system.membus.snoopFanout::total                  530                       # Request fanout histogram (Count)
system.membus.power_state.pwrStateResidencyTicks::UNDEFINED     27788500                       # Cumulative time (in ticks) in various power states (Tick)
system.membus.reqLayer0.occupancy             2312000                       # Layer occupancy (ticks) (Tick)
system.membus.reqLayer0.utilization               0.1                       # Layer utilization (Ratio)
system.membus.respLayer1.occupancy            2842000                       # Layer occupancy (ticks) (Tick)
system.membus.respLayer1.utilization              0.1                       # Layer utilization (Ratio)
system.membus.snoop_filter.totRequests           1230                       # Total number of requests made to the snoop filter. (Count)
system.membus.snoop_filter.hitSingleRequests          700                       # Number of requests hitting in the snoop filter with a single holder of the requested data. (Count)
system.membus.snoop_filter.hitMultiRequests            0                       # Number of requests hitting in the snoop filter with multiple (>1) holders of the requested data. (Count)
system.membus.snoop_filter.totSnoops                0                       # Total number of snoops made to the snoop filter. (Count)
system.membus.snoop_filter.hitSingleSnoops            0                       # Number of snoops hitting in the snoop filter with a single holder of the requested data. (Count)
system.membus.snoop_filter.hitMultiSnoops            0                       # Number of snoops hitting in the snoop filter with multiple (>1) holders of the requested data. (Count)
system.tol2bus.transDist::ReadResp                531                       # Transaction distribution (Count)
system.tol2bus.transDist::WritebackDirty          321                       # Transaction distribution (Count)
system.tol2bus.transDist::WritebackClean          218                       # Transaction distribution (Count)
system.tol2bus.transDist::CleanEvict              724                       # Transaction distribution (Count)
system.tol2bus.transDist::ReadExReq                25                       # Transaction distribution (Count)
system.tol2bus.transDist::ReadExResp               25                       # Transaction distribution (Count)
system.tol2bus.transDist::ReadCleanReq            217                       # Transaction distribution (Count)
system.tol2bus.transDist::ReadSharedReq           309                       # Transaction distribution (Count)
system.tol2bus.transDist::InvalidateReq             2                       # Transaction distribution (Count)
system.tol2bus.transDist::InvalidateResp            2                       # Transaction distribution (Count)
system.tol2bus.pktCount_system.cpu.icache.mem_side_port::system.l2.cpu_side_port          653                       # Packet count per connected requestor and responder (Count)
system.tol2bus.pktCount_system.cpu.dcache.mem_side_port::system.l2.cpu_side_port         1016                       # Packet count per connected requestor and responder (Count)
system.tol2bus.pktCount::total                   1669                       # Packet count per connected requestor and responder (Count)
system.tol2bus.pktSize_system.cpu.icache.mem_side_port::system.l2.cpu_side_port        27904                       # Cumulative packet size per connected requestor and responder (Byte)
system.tol2bus.pktSize_system.cpu.dcache.mem_side_port::system.l2.cpu_side_port        26944                       # Cumulative packet size per connected requestor and responder (Byte)
system.tol2bus.pktSize::total                   54848                       # Cumulative packet size per connected requestor and responder (Byte)
system.tol2bus.snoops                             705                       # Total snoops (Count)
system.tol2bus.snoopTraffic                     15232                       # Total snoop traffic (Byte)
system.tol2bus.snoopFanout::samples              1258                       # Request fanout histogram (Count)
system.tol2bus.snoopFanout::mean             0.007949                       # Request fanout histogram (Count)
system.tol2bus.snoopFanout::stdev            0.088838                       # Request fanout histogram (Count)
system.tol2bus.snoopFanout::underflows              0      0.00%      0.00% # Request fanout histogram (Count)
system.tol2bus.snoopFanout::0                    1248     99.21%     99.21% # Request fanout histogram (Count)
system.tol2bus.snoopFanout::1                      10      0.79%    100.00% # Request fanout histogram (Count)
system.tol2bus.snoopFanout::2                       0      0.00%    100.00% # Request fanout histogram (Count)
system.tol2bus.snoopFanout::overflows               0      0.00%    100.00% # Request fanout histogram (Count)
system.tol2bus.snoopFanout::min_value               0                       # Request fanout histogram (Count)
system.tol2bus.snoopFanout::max_value               1                       # Request fanout histogram (Count)
system.tol2bus.snoopFanout::total                1258                       # Request fanout histogram (Count)
system.tol2bus.power_state.pwrStateResidencyTicks::UNDEFINED     27788500                       # Cumulative time (in ticks) in various power states (Tick)
system.tol2bus.reqLayer0.occupancy             856500                       # Layer occupancy (ticks) (Tick)
system.tol2bus.reqLayer0.utilization              0.0                       # Layer utilization (Ratio)
system.tol2bus.respLayer0.occupancy            327000                       # Layer occupancy (ticks) (Tick)
system.tol2bus.respLayer0.utilization             0.0                       # Layer utilization (Ratio)
system.tol2bus.respLayer1.occupancy            508000                       # Layer occupancy (ticks) (Tick)
system.tol2bus.respLayer1.utilization             0.0                       # Layer utilization (Ratio)
system.tol2bus.snoop_filter.totRequests          1111                       # Total number of requests made to the snoop filter. (Count)
system.tol2bus.snoop_filter.hitSingleRequests          558                       # Number of requests hitting in the snoop filter with a single holder of the requested data. (Count)
system.tol2bus.snoop_filter.hitMultiRequests            0                       # Number of requests hitting in the snoop filter with multiple (>1) holders of the requested data. (Count)
system.tol2bus.snoop_filter.totSnoops              10                       # Total number of snoops made to the snoop filter. (Count)
system.tol2bus.snoop_filter.hitSingleSnoops           10                       # Number of snoops hitting in the snoop filter with a single holder of the requested data. (Count)
system.tol2bus.snoop_filter.hitMultiSnoops            0                       # Number of snoops hitting in the snoop filter with multiple (>1) holders of the requested data. (Count)
system.voltage_domain.voltage                       1                       # Voltage in Volts (Volt)
system.workload.inst.arm                            0                       # number of arm instructions executed (Count)
system.workload.inst.quiesce                        0                       # number of quiesce instructions executed (Count)

---------- End Simulation Statistics   ----------
