
---------- Begin Simulation Statistics ----------
simSeconds                                   0.006033                       # Number of seconds simulated (Second)
simTicks                                   6032879000                       # Number of ticks simulated (Tick)
finalTick                                  7023677000                       # Number of ticks from beginning of simulation (restored from checkpoints and never reset) (Tick)
simFreq                                  1000000000000                       # The number of ticks per simulated second ((Tick/Second))
hostSeconds                                     43.82                       # Real time elapsed on the host (Second)
hostTickRate                                137659908                       # The number of ticks simulated per host second (ticks/s) ((Tick/Second))
hostMemory                                     680120                       # Number of bytes of host memory used (Byte)
simInsts                                     11781855                       # Number of instructions simulated (Count)
simOps                                       12994740                       # Number of ops (including micro ops) simulated (Count)
hostInstRate                                   268841                       # Simulator instruction rate (inst/s) ((Count/Second))
hostOpRate                                     296516                       # Simulator op (including micro ops) rate (op/s) ((Count/Second))
system.clk_domain.clock                          1000                       # Clock period in ticks (Tick)
system.cpu.numCycles                         12065758                       # Number of cpu cycles simulated (Cycle)
system.cpu.numWorkItemsStarted                      0                       # Number of work items this cpu started (Count)
system.cpu.numWorkItemsCompleted                    0                       # Number of work items this cpu completed (Count)
system.cpu.instsAdded                        11129914                       # Number of instructions added to the IQ (excludes non-spec) (Count)
system.cpu.nonSpecInstsAdded                        2                       # Number of non-speculative instructions added to the IQ (Count)
system.cpu.instsIssued                       11985897                       # Number of instructions issued (Count)
system.cpu.squashedInstsIssued                     67                       # Number of squashed instructions issued (Count)
system.cpu.squashedInstsExamined                61667                       # Number of squashed instructions iterated over during squash; mainly for profiling (Count)
system.cpu.squashedOperandsExamined             69149                       # Number of squashed operands that are examined and possibly removed from graph (Count)
system.cpu.squashedNonSpecRemoved                   1                       # Number of squashed non-spec instructions that were removed (Count)
system.cpu.numIssuedDist::samples            12063244                       # Number of insts issued each cycle (Count)
system.cpu.numIssuedDist::mean               0.993588                       # Number of insts issued each cycle (Count)
system.cpu.numIssuedDist::stdev              1.931958                       # Number of insts issued each cycle (Count)
system.cpu.numIssuedDist::underflows                0      0.00%      0.00% # Number of insts issued each cycle (Count)
system.cpu.numIssuedDist::0                   9030491     74.86%     74.86% # Number of insts issued each cycle (Count)
system.cpu.numIssuedDist::1                    378846      3.14%     78.00% # Number of insts issued each cycle (Count)
system.cpu.numIssuedDist::2                    358960      2.98%     80.98% # Number of insts issued each cycle (Count)
system.cpu.numIssuedDist::3                    359920      2.98%     83.96% # Number of insts issued each cycle (Count)
system.cpu.numIssuedDist::4                    695803      5.77%     89.73% # Number of insts issued each cycle (Count)
system.cpu.numIssuedDist::5                    659245      5.46%     95.19% # Number of insts issued each cycle (Count)
system.cpu.numIssuedDist::6                    398262      3.30%     98.49% # Number of insts issued each cycle (Count)
system.cpu.numIssuedDist::7                    113374      0.94%     99.43% # Number of insts issued each cycle (Count)
system.cpu.numIssuedDist::8                     68343      0.57%    100.00% # Number of insts issued each cycle (Count)
system.cpu.numIssuedDist::overflows                 0      0.00%    100.00% # Number of insts issued each cycle (Count)
system.cpu.numIssuedDist::min_value                 0                       # Number of insts issued each cycle (Count)
system.cpu.numIssuedDist::max_value                 8                       # Number of insts issued each cycle (Count)
system.cpu.numIssuedDist::total              12063244                       # Number of insts issued each cycle (Count)
system.cpu.statFuBusy::No_OpClass                   0      0.00%      0.00% # attempts to use FU when none available (Count)
system.cpu.statFuBusy::IntAlu                       1      0.00%      0.00% # attempts to use FU when none available (Count)
system.cpu.statFuBusy::IntMult                      0      0.00%      0.00% # attempts to use FU when none available (Count)
system.cpu.statFuBusy::IntDiv                       0      0.00%      0.00% # attempts to use FU when none available (Count)
system.cpu.statFuBusy::FloatAdd                     0      0.00%      0.00% # attempts to use FU when none available (Count)
system.cpu.statFuBusy::FloatCmp                     0      0.00%      0.00% # attempts to use FU when none available (Count)
system.cpu.statFuBusy::FloatCvt                     0      0.00%      0.00% # attempts to use FU when none available (Count)
system.cpu.statFuBusy::FloatMult                    0      0.00%      0.00% # attempts to use FU when none available (Count)
system.cpu.statFuBusy::FloatMultAcc                 0      0.00%      0.00% # attempts to use FU when none available (Count)
system.cpu.statFuBusy::FloatDiv                     0      0.00%      0.00% # attempts to use FU when none available (Count)
system.cpu.statFuBusy::FloatMisc                    0      0.00%      0.00% # attempts to use FU when none available (Count)
system.cpu.statFuBusy::FloatSqrt                    0      0.00%      0.00% # attempts to use FU when none available (Count)
system.cpu.statFuBusy::SimdAdd                 321770     23.53%     23.53% # attempts to use FU when none available (Count)
system.cpu.statFuBusy::SimdAddAcc                   0      0.00%     23.53% # attempts to use FU when none available (Count)
system.cpu.statFuBusy::SimdAlu                 893241     65.31%     88.83% # attempts to use FU when none available (Count)
system.cpu.statFuBusy::SimdCmp                      0      0.00%     88.83% # attempts to use FU when none available (Count)
system.cpu.statFuBusy::SimdCvt                      0      0.00%     88.83% # attempts to use FU when none available (Count)
system.cpu.statFuBusy::SimdMisc                     0      0.00%     88.83% # attempts to use FU when none available (Count)
system.cpu.statFuBusy::SimdMult                     0      0.00%     88.83% # attempts to use FU when none available (Count)
system.cpu.statFuBusy::SimdMultAcc                  0      0.00%     88.83% # attempts to use FU when none available (Count)
system.cpu.statFuBusy::SimdShift                    0      0.00%     88.83% # attempts to use FU when none available (Count)
system.cpu.statFuBusy::SimdShiftAcc                 0      0.00%     88.83% # attempts to use FU when none available (Count)
system.cpu.statFuBusy::SimdDiv                      0      0.00%     88.83% # attempts to use FU when none available (Count)
system.cpu.statFuBusy::SimdSqrt                     0      0.00%     88.83% # attempts to use FU when none available (Count)
system.cpu.statFuBusy::SimdFloatAdd                 0      0.00%     88.83% # attempts to use FU when none available (Count)
system.cpu.statFuBusy::SimdFloatAlu                 0      0.00%     88.83% # attempts to use FU when none available (Count)
system.cpu.statFuBusy::SimdFloatCmp                 0      0.00%     88.83% # attempts to use FU when none available (Count)
system.cpu.statFuBusy::SimdFloatCvt                 0      0.00%     88.83% # attempts to use FU when none available (Count)
system.cpu.statFuBusy::SimdFloatDiv                 0      0.00%     88.83% # attempts to use FU when none available (Count)
system.cpu.statFuBusy::SimdFloatMisc                0      0.00%     88.83% # attempts to use FU when none available (Count)
system.cpu.statFuBusy::SimdFloatMult                0      0.00%     88.83% # attempts to use FU when none available (Count)
system.cpu.statFuBusy::SimdFloatMultAcc             0      0.00%     88.83% # attempts to use FU when none available (Count)
system.cpu.statFuBusy::SimdFloatSqrt                0      0.00%     88.83% # attempts to use FU when none available (Count)
system.cpu.statFuBusy::SimdReduceAdd                0      0.00%     88.83% # attempts to use FU when none available (Count)
system.cpu.statFuBusy::SimdReduceAlu                0      0.00%     88.83% # attempts to use FU when none available (Count)
system.cpu.statFuBusy::SimdReduceCmp                0      0.00%     88.83% # attempts to use FU when none available (Count)
system.cpu.statFuBusy::SimdFloatReduceAdd            0      0.00%     88.83% # attempts to use FU when none available (Count)
system.cpu.statFuBusy::SimdFloatReduceCmp            0      0.00%     88.83% # attempts to use FU when none available (Count)
system.cpu.statFuBusy::SimdAes                      0      0.00%     88.83% # attempts to use FU when none available (Count)
system.cpu.statFuBusy::SimdAesMix                   0      0.00%     88.83% # attempts to use FU when none available (Count)
system.cpu.statFuBusy::SimdSha1Hash                 0      0.00%     88.83% # attempts to use FU when none available (Count)
system.cpu.statFuBusy::SimdSha1Hash2                0      0.00%     88.83% # attempts to use FU when none available (Count)
system.cpu.statFuBusy::SimdSha256Hash               0      0.00%     88.83% # attempts to use FU when none available (Count)
system.cpu.statFuBusy::SimdSha256Hash2              0      0.00%     88.83% # attempts to use FU when none available (Count)
system.cpu.statFuBusy::SimdShaSigma2                0      0.00%     88.83% # attempts to use FU when none available (Count)
system.cpu.statFuBusy::SimdShaSigma3                0      0.00%     88.83% # attempts to use FU when none available (Count)
system.cpu.statFuBusy::SimdPredAlu                  0      0.00%     88.83% # attempts to use FU when none available (Count)
system.cpu.statFuBusy::MemRead                 152697     11.16%    100.00% # attempts to use FU when none available (Count)
system.cpu.statFuBusy::MemWrite                    37      0.00%    100.00% # attempts to use FU when none available (Count)
system.cpu.statFuBusy::FloatMemRead                 0      0.00%    100.00% # attempts to use FU when none available (Count)
system.cpu.statFuBusy::FloatMemWrite                0      0.00%    100.00% # attempts to use FU when none available (Count)
system.cpu.statFuBusy::IprAccess                    0      0.00%    100.00% # attempts to use FU when none available (Count)
system.cpu.statFuBusy::InstPrefetch                 0      0.00%    100.00% # attempts to use FU when none available (Count)
system.cpu.statIssuedInstType_0::No_OpClass       336291      2.81%      2.81% # Number of instructions issued per FU type, per thread (Count)
system.cpu.statIssuedInstType_0::IntAlu       1702454     14.20%     17.01% # Number of instructions issued per FU type, per thread (Count)
system.cpu.statIssuedInstType_0::IntMult            1      0.00%     17.01% # Number of instructions issued per FU type, per thread (Count)
system.cpu.statIssuedInstType_0::IntDiv             0      0.00%     17.01% # Number of instructions issued per FU type, per thread (Count)
system.cpu.statIssuedInstType_0::FloatAdd            0      0.00%     17.01% # Number of instructions issued per FU type, per thread (Count)
system.cpu.statIssuedInstType_0::FloatCmp            0      0.00%     17.01% # Number of instructions issued per FU type, per thread (Count)
system.cpu.statIssuedInstType_0::FloatCvt            0      0.00%     17.01% # Number of instructions issued per FU type, per thread (Count)
system.cpu.statIssuedInstType_0::FloatMult            0      0.00%     17.01% # Number of instructions issued per FU type, per thread (Count)
system.cpu.statIssuedInstType_0::FloatMultAcc            0      0.00%     17.01% # Number of instructions issued per FU type, per thread (Count)
system.cpu.statIssuedInstType_0::FloatDiv            0      0.00%     17.01% # Number of instructions issued per FU type, per thread (Count)
system.cpu.statIssuedInstType_0::FloatMisc            0      0.00%     17.01% # Number of instructions issued per FU type, per thread (Count)
system.cpu.statIssuedInstType_0::FloatSqrt            0      0.00%     17.01% # Number of instructions issued per FU type, per thread (Count)
system.cpu.statIssuedInstType_0::SimdAdd      2083625     17.38%     34.39% # Number of instructions issued per FU type, per thread (Count)
system.cpu.statIssuedInstType_0::SimdAddAcc            0      0.00%     34.39% # Number of instructions issued per FU type, per thread (Count)
system.cpu.statIssuedInstType_0::SimdAlu      4380830     36.55%     70.94% # Number of instructions issued per FU type, per thread (Count)
system.cpu.statIssuedInstType_0::SimdCmp            0      0.00%     70.94% # Number of instructions issued per FU type, per thread (Count)
system.cpu.statIssuedInstType_0::SimdCvt            0      0.00%     70.94% # Number of instructions issued per FU type, per thread (Count)
system.cpu.statIssuedInstType_0::SimdMisc       207936      1.73%     72.68% # Number of instructions issued per FU type, per thread (Count)
system.cpu.statIssuedInstType_0::SimdMult            0      0.00%     72.68% # Number of instructions issued per FU type, per thread (Count)
system.cpu.statIssuedInstType_0::SimdMultAcc            0      0.00%     72.68% # Number of instructions issued per FU type, per thread (Count)
system.cpu.statIssuedInstType_0::SimdShift            0      0.00%     72.68% # Number of instructions issued per FU type, per thread (Count)
system.cpu.statIssuedInstType_0::SimdShiftAcc            0      0.00%     72.68% # Number of instructions issued per FU type, per thread (Count)
system.cpu.statIssuedInstType_0::SimdDiv            0      0.00%     72.68% # Number of instructions issued per FU type, per thread (Count)
system.cpu.statIssuedInstType_0::SimdSqrt            0      0.00%     72.68% # Number of instructions issued per FU type, per thread (Count)
system.cpu.statIssuedInstType_0::SimdFloatAdd            0      0.00%     72.68% # Number of instructions issued per FU type, per thread (Count)
system.cpu.statIssuedInstType_0::SimdFloatAlu            0      0.00%     72.68% # Number of instructions issued per FU type, per thread (Count)
system.cpu.statIssuedInstType_0::SimdFloatCmp            0      0.00%     72.68% # Number of instructions issued per FU type, per thread (Count)
system.cpu.statIssuedInstType_0::SimdFloatCvt            0      0.00%     72.68% # Number of instructions issued per FU type, per thread (Count)
system.cpu.statIssuedInstType_0::SimdFloatDiv            0      0.00%     72.68% # Number of instructions issued per FU type, per thread (Count)
system.cpu.statIssuedInstType_0::SimdFloatMisc            0      0.00%     72.68% # Number of instructions issued per FU type, per thread (Count)
system.cpu.statIssuedInstType_0::SimdFloatMult            0      0.00%     72.68% # Number of instructions issued per FU type, per thread (Count)
system.cpu.statIssuedInstType_0::SimdFloatMultAcc            0      0.00%     72.68% # Number of instructions issued per FU type, per thread (Count)
system.cpu.statIssuedInstType_0::SimdFloatSqrt            0      0.00%     72.68% # Number of instructions issued per FU type, per thread (Count)
system.cpu.statIssuedInstType_0::SimdReduceAdd            0      0.00%     72.68% # Number of instructions issued per FU type, per thread (Count)
system.cpu.statIssuedInstType_0::SimdReduceAlu            0      0.00%     72.68% # Number of instructions issued per FU type, per thread (Count)
system.cpu.statIssuedInstType_0::SimdReduceCmp            0      0.00%     72.68% # Number of instructions issued per FU type, per thread (Count)
system.cpu.statIssuedInstType_0::SimdFloatReduceAdd            0      0.00%     72.68% # Number of instructions issued per FU type, per thread (Count)
system.cpu.statIssuedInstType_0::SimdFloatReduceCmp            0      0.00%     72.68% # Number of instructions issued per FU type, per thread (Count)
system.cpu.statIssuedInstType_0::SimdAes            0      0.00%     72.68% # Number of instructions issued per FU type, per thread (Count)
system.cpu.statIssuedInstType_0::SimdAesMix            0      0.00%     72.68% # Number of instructions issued per FU type, per thread (Count)
system.cpu.statIssuedInstType_0::SimdSha1Hash            0      0.00%     72.68% # Number of instructions issued per FU type, per thread (Count)
system.cpu.statIssuedInstType_0::SimdSha1Hash2            0      0.00%     72.68% # Number of instructions issued per FU type, per thread (Count)
system.cpu.statIssuedInstType_0::SimdSha256Hash            0      0.00%     72.68% # Number of instructions issued per FU type, per thread (Count)
system.cpu.statIssuedInstType_0::SimdSha256Hash2            0      0.00%     72.68% # Number of instructions issued per FU type, per thread (Count)
system.cpu.statIssuedInstType_0::SimdShaSigma2            0      0.00%     72.68% # Number of instructions issued per FU type, per thread (Count)
system.cpu.statIssuedInstType_0::SimdShaSigma3            0      0.00%     72.68% # Number of instructions issued per FU type, per thread (Count)
system.cpu.statIssuedInstType_0::SimdPredAlu            0      0.00%     72.68% # Number of instructions issued per FU type, per thread (Count)
system.cpu.statIssuedInstType_0::MemRead      3200291     26.70%     99.38% # Number of instructions issued per FU type, per thread (Count)
system.cpu.statIssuedInstType_0::MemWrite        74469      0.62%    100.00% # Number of instructions issued per FU type, per thread (Count)
system.cpu.statIssuedInstType_0::FloatMemRead            0      0.00%    100.00% # Number of instructions issued per FU type, per thread (Count)
system.cpu.statIssuedInstType_0::FloatMemWrite            0      0.00%    100.00% # Number of instructions issued per FU type, per thread (Count)
system.cpu.statIssuedInstType_0::IprAccess            0      0.00%    100.00% # Number of instructions issued per FU type, per thread (Count)
system.cpu.statIssuedInstType_0::InstPrefetch            0      0.00%    100.00% # Number of instructions issued per FU type, per thread (Count)
system.cpu.statIssuedInstType_0::total       11985897                       # Number of instructions issued per FU type, per thread (Count)
system.cpu.issueRate                         0.993381                       # Inst issue rate ((Count/Cycle))
system.cpu.fuBusy                             1367746                       # FU busy when requested (Count)
system.cpu.fuBusyRate                        0.114113                       # FU busy rate (busy events/executed inst) ((Count/Count))
system.cpu.intInstQueueReads                 15575322                       # Number of integer instruction queue reads (Count)
system.cpu.intInstQueueWrites                 1778291                       # Number of integer instruction queue writes (Count)
system.cpu.intInstQueueWakeupAccesses         1753678                       # Number of integer instruction queue wakeup accesses (Count)
system.cpu.fpInstQueueReads                         0                       # Number of floating instruction queue reads (Count)
system.cpu.fpInstQueueWrites                        0                       # Number of floating instruction queue writes (Count)
system.cpu.fpInstQueueWakeupAccesses                0                       # Number of floating instruction queue wakeup accesses (Count)
system.cpu.vecInstQueueReads                 21827529                       # Number of vector instruction queue reads (Count)
system.cpu.vecInstQueueWrites                 9413306                       # Number of vector instruction queue writes (Count)
system.cpu.vecInstQueueWakeupAccesses         9351692                       # Number of vector instruction queue wakeup accesses (Count)
system.cpu.intAluAccesses                     1756052                       # Number of integer alu accesses (Count)
system.cpu.fpAluAccesses                            0                       # Number of floating point alu accesses (Count)
system.cpu.vecAluAccesses                    11261300                       # Number of vector alu accesses (Count)
system.cpu.numInsts                          11983018                       # Number of executed instructions (Count)
system.cpu.numLoadInsts                       3199364                       # Number of load instructions executed (Count)
system.cpu.numSquashedInsts                      2879                       # Number of squashed instructions skipped in execute (Count)
system.cpu.numSwp                                   0                       # Number of swp insts executed (Count)
system.cpu.numNop                                 919                       # Number of nop insts executed (Count)
system.cpu.numRefs                            3273831                       # Number of memory reference insts executed (Count)
system.cpu.numBranches                          54131                       # Number of branches executed (Count)
system.cpu.numStoreInsts                        74467                       # Number of stores executed (Count)
system.cpu.numRate                           0.993143                       # Inst execution rate ((Count/Cycle))
system.cpu.timesIdled                              22                       # Number of times that the entire CPU went into an idle state and unscheduled itself (Count)
system.cpu.idleCycles                            2514                       # Total number of cycles that the CPU has spent unscheduled due to idling (Cycle)
system.cpu.committedInsts                    10124462                       # Number of Instructions Simulated (Count)
system.cpu.committedOps                      11068251                       # Number of Ops (including micro ops) Simulated (Count)
system.cpu.cpi                               1.191743                       # CPI: Cycles Per Instruction ((Cycle/Count))
system.cpu.totalCpi                          1.191743                       # CPI: Total CPI of All Threads ((Cycle/Count))
system.cpu.ipc                               0.839107                       # IPC: Instructions Per Cycle ((Count/Cycle))
system.cpu.totalIpc                          0.839107                       # IPC: Total IPC of All Threads ((Count/Cycle))
system.cpu.intRegfileReads                    5711211                       # Number of integer regfile reads (Count)
system.cpu.intRegfileWrites                   1642813                       # Number of integer regfile writes (Count)
system.cpu.vecRegfileReads                   22202638                       # number of vector regfile reads (Count)
system.cpu.ccRegfileReads                      637857                       # number of cc regfile reads (Count)
system.cpu.ccRegfileWrites                     637860                       # number of cc regfile writes (Count)
system.cpu.miscRegfileReads                  19837555                       # number of misc regfile reads (Count)
system.cpu.MemDepUnit__0.insertedLoads        2327475                       # Number of loads inserted to the mem dependence unit. (Count)
system.cpu.MemDepUnit__0.insertedStores         74796                       # Number of stores inserted to the mem dependence unit. (Count)
system.cpu.MemDepUnit__0.conflictingLoads         1333                       # Number of conflicting loads. (Count)
system.cpu.MemDepUnit__0.conflictingStores            1                       # Number of conflicting stores. (Count)
system.cpu.MemDepUnit__1.insertedLoads              0                       # Number of loads inserted to the mem dependence unit. (Count)
system.cpu.MemDepUnit__1.insertedStores             0                       # Number of stores inserted to the mem dependence unit. (Count)
system.cpu.MemDepUnit__1.conflictingLoads            0                       # Number of conflicting loads. (Count)
system.cpu.MemDepUnit__1.conflictingStores            0                       # Number of conflicting stores. (Count)
system.cpu.MemDepUnit__2.insertedLoads              0                       # Number of loads inserted to the mem dependence unit. (Count)
system.cpu.MemDepUnit__2.insertedStores             0                       # Number of stores inserted to the mem dependence unit. (Count)
system.cpu.MemDepUnit__2.conflictingLoads            0                       # Number of conflicting loads. (Count)
system.cpu.MemDepUnit__2.conflictingStores            0                       # Number of conflicting stores. (Count)
system.cpu.MemDepUnit__3.insertedLoads              0                       # Number of loads inserted to the mem dependence unit. (Count)
system.cpu.MemDepUnit__3.insertedStores             0                       # Number of stores inserted to the mem dependence unit. (Count)
system.cpu.MemDepUnit__3.conflictingLoads            0                       # Number of conflicting loads. (Count)
system.cpu.MemDepUnit__3.conflictingStores            0                       # Number of conflicting stores. (Count)
system.cpu.branchPred.lookups                   54285                       # Number of BP lookups (Count)
system.cpu.branchPred.condPredicted             54178                       # Number of conditional branches predicted (Count)
system.cpu.branchPred.condIncorrect               941                       # Number of conditional branches incorrect (Count)
system.cpu.branchPred.BTBLookups                53249                       # Number of BTB lookups (Count)
system.cpu.branchPred.BTBUpdates                    7                       # Number of BTB updates (Count)
system.cpu.branchPred.BTBHits                   53219                       # Number of BTB hits (Count)
system.cpu.branchPred.BTBHitRatio            0.999437                       # BTB Hit Ratio (Ratio)
system.cpu.branchPred.RASUsed                       4                       # Number of times the RAS was used to get a target. (Count)
system.cpu.branchPred.RASIncorrect                  0                       # Number of incorrect RAS predictions. (Count)
system.cpu.branchPred.indirectLookups              73                       # Number of indirect predictor lookups. (Count)
system.cpu.branchPred.indirectHits                  1                       # Number of indirect target hits. (Count)
system.cpu.branchPred.indirectMisses               72                       # Number of indirect misses. (Count)
system.cpu.branchPred.indirectMispredicted            3                       # Number of mispredicted indirect branches. (Count)
system.cpu.commit.commitSquashedInsts           61178                       # The number of squashed insts skipped by commit (Count)
system.cpu.commit.commitNonSpecStalls               1                       # The number of times commit has been forced to stall to communicate backwards (Count)
system.cpu.commit.branchMispredicts               939                       # The number of times a branch was mispredicted (Count)
system.cpu.commit.numCommittedDist::samples     12055353                       # Number of insts commited each cycle (Count)
system.cpu.commit.numCommittedDist::mean     0.918195                       # Number of insts commited each cycle (Count)
system.cpu.commit.numCommittedDist::stdev     2.416481                       # Number of insts commited each cycle (Count)
system.cpu.commit.numCommittedDist::underflows            0      0.00%      0.00% # Number of insts commited each cycle (Count)
system.cpu.commit.numCommittedDist::0        10131007     84.04%     84.04% # Number of insts commited each cycle (Count)
system.cpu.commit.numCommittedDist::1          404042      3.35%     87.39% # Number of insts commited each cycle (Count)
system.cpu.commit.numCommittedDist::2          104314      0.87%     88.25% # Number of insts commited each cycle (Count)
system.cpu.commit.numCommittedDist::3           52657      0.44%     88.69% # Number of insts commited each cycle (Count)
system.cpu.commit.numCommittedDist::4           52749      0.44%     89.13% # Number of insts commited each cycle (Count)
system.cpu.commit.numCommittedDist::5           51983      0.43%     89.56% # Number of insts commited each cycle (Count)
system.cpu.commit.numCommittedDist::6           94090      0.78%     90.34% # Number of insts commited each cycle (Count)
system.cpu.commit.numCommittedDist::7           53017      0.44%     90.78% # Number of insts commited each cycle (Count)
system.cpu.commit.numCommittedDist::8         1111494      9.22%    100.00% # Number of insts commited each cycle (Count)
system.cpu.commit.numCommittedDist::overflows            0      0.00%    100.00% # Number of insts commited each cycle (Count)
system.cpu.commit.numCommittedDist::min_value            0                       # Number of insts commited each cycle (Count)
system.cpu.commit.numCommittedDist::max_value            8                       # Number of insts commited each cycle (Count)
system.cpu.commit.numCommittedDist::total     12055353                       # Number of insts commited each cycle (Count)
system.cpu.commit.instsCommitted             10125374                       # Number of instructions committed (Count)
system.cpu.commit.opsCommitted               11069163                       # Number of ops (including micro ops) committed (Count)
system.cpu.commit.memRefs                     2388587                       # Number of memory references committed (Count)
system.cpu.commit.loads                       2314274                       # Number of loads committed (Count)
system.cpu.commit.amos                              0                       # Number of atomic instructions committed (Count)
system.cpu.commit.membars                           0                       # Number of memory barriers committed (Count)
system.cpu.commit.branches                      53843                       # Number of branches committed (Count)
system.cpu.commit.vectorInstructions          9325504                       # Number of committed Vector instructions. (Count)
system.cpu.commit.floating                          0                       # Number of committed floating point instructions. (Count)
system.cpu.commit.integer                     4232366                       # Number of committed integer instructions. (Count)
system.cpu.commit.functionCalls                     1                       # Number of function calls committed. (Count)
system.cpu.commit.committedInstType_0::No_OpClass       335788      3.03%      3.03% # Class of committed instruction (Count)
system.cpu.commit.committedInstType_0::IntAlu      1690595     15.27%     18.31% # Class of committed instruction (Count)
system.cpu.commit.committedInstType_0::IntMult            1      0.00%     18.31% # Class of committed instruction (Count)
system.cpu.commit.committedInstType_0::IntDiv            0      0.00%     18.31% # Class of committed instruction (Count)
system.cpu.commit.committedInstType_0::FloatAdd            0      0.00%     18.31% # Class of committed instruction (Count)
system.cpu.commit.committedInstType_0::FloatCmp            0      0.00%     18.31% # Class of committed instruction (Count)
system.cpu.commit.committedInstType_0::FloatCvt            0      0.00%     18.31% # Class of committed instruction (Count)
system.cpu.commit.committedInstType_0::FloatMult            0      0.00%     18.31% # Class of committed instruction (Count)
system.cpu.commit.committedInstType_0::FloatMultAcc            0      0.00%     18.31% # Class of committed instruction (Count)
system.cpu.commit.committedInstType_0::FloatDiv            0      0.00%     18.31% # Class of committed instruction (Count)
system.cpu.commit.committedInstType_0::FloatMisc            0      0.00%     18.31% # Class of committed instruction (Count)
system.cpu.commit.committedInstType_0::FloatSqrt            0      0.00%     18.31% # Class of committed instruction (Count)
system.cpu.commit.committedInstType_0::SimdAdd      2079360     18.79%     37.09% # Class of committed instruction (Count)
system.cpu.commit.committedInstType_0::SimdAddAcc            0      0.00%     37.09% # Class of committed instruction (Count)
system.cpu.commit.committedInstType_0::SimdAlu      4366896     39.45%     76.54% # Class of committed instruction (Count)
system.cpu.commit.committedInstType_0::SimdCmp            0      0.00%     76.54% # Class of committed instruction (Count)
system.cpu.commit.committedInstType_0::SimdCvt            0      0.00%     76.54% # Class of committed instruction (Count)
system.cpu.commit.committedInstType_0::SimdMisc       207936      1.88%     78.42% # Class of committed instruction (Count)
system.cpu.commit.committedInstType_0::SimdMult            0      0.00%     78.42% # Class of committed instruction (Count)
system.cpu.commit.committedInstType_0::SimdMultAcc            0      0.00%     78.42% # Class of committed instruction (Count)
system.cpu.commit.committedInstType_0::SimdShift            0      0.00%     78.42% # Class of committed instruction (Count)
system.cpu.commit.committedInstType_0::SimdShiftAcc            0      0.00%     78.42% # Class of committed instruction (Count)
system.cpu.commit.committedInstType_0::SimdDiv            0      0.00%     78.42% # Class of committed instruction (Count)
system.cpu.commit.committedInstType_0::SimdSqrt            0      0.00%     78.42% # Class of committed instruction (Count)
system.cpu.commit.committedInstType_0::SimdFloatAdd            0      0.00%     78.42% # Class of committed instruction (Count)
system.cpu.commit.committedInstType_0::SimdFloatAlu            0      0.00%     78.42% # Class of committed instruction (Count)
system.cpu.commit.committedInstType_0::SimdFloatCmp            0      0.00%     78.42% # Class of committed instruction (Count)
system.cpu.commit.committedInstType_0::SimdFloatCvt            0      0.00%     78.42% # Class of committed instruction (Count)
system.cpu.commit.committedInstType_0::SimdFloatDiv            0      0.00%     78.42% # Class of committed instruction (Count)
system.cpu.commit.committedInstType_0::SimdFloatMisc            0      0.00%     78.42% # Class of committed instruction (Count)
system.cpu.commit.committedInstType_0::SimdFloatMult            0      0.00%     78.42% # Class of committed instruction (Count)
system.cpu.commit.committedInstType_0::SimdFloatMultAcc            0      0.00%     78.42% # Class of committed instruction (Count)
system.cpu.commit.committedInstType_0::SimdFloatSqrt            0      0.00%     78.42% # Class of committed instruction (Count)
system.cpu.commit.committedInstType_0::SimdReduceAdd            0      0.00%     78.42% # Class of committed instruction (Count)
system.cpu.commit.committedInstType_0::SimdReduceAlu            0      0.00%     78.42% # Class of committed instruction (Count)
system.cpu.commit.committedInstType_0::SimdReduceCmp            0      0.00%     78.42% # Class of committed instruction (Count)
system.cpu.commit.committedInstType_0::SimdFloatReduceAdd            0      0.00%     78.42% # Class of committed instruction (Count)
system.cpu.commit.committedInstType_0::SimdFloatReduceCmp            0      0.00%     78.42% # Class of committed instruction (Count)
system.cpu.commit.committedInstType_0::SimdAes            0      0.00%     78.42% # Class of committed instruction (Count)
system.cpu.commit.committedInstType_0::SimdAesMix            0      0.00%     78.42% # Class of committed instruction (Count)
system.cpu.commit.committedInstType_0::SimdSha1Hash            0      0.00%     78.42% # Class of committed instruction (Count)
system.cpu.commit.committedInstType_0::SimdSha1Hash2            0      0.00%     78.42% # Class of committed instruction (Count)
system.cpu.commit.committedInstType_0::SimdSha256Hash            0      0.00%     78.42% # Class of committed instruction (Count)
system.cpu.commit.committedInstType_0::SimdSha256Hash2            0      0.00%     78.42% # Class of committed instruction (Count)
system.cpu.commit.committedInstType_0::SimdShaSigma2            0      0.00%     78.42% # Class of committed instruction (Count)
system.cpu.commit.committedInstType_0::SimdShaSigma3            0      0.00%     78.42% # Class of committed instruction (Count)
system.cpu.commit.committedInstType_0::SimdPredAlu            0      0.00%     78.42% # Class of committed instruction (Count)
system.cpu.commit.committedInstType_0::MemRead      2314274     20.91%     99.33% # Class of committed instruction (Count)
system.cpu.commit.committedInstType_0::MemWrite        74313      0.67%    100.00% # Class of committed instruction (Count)
system.cpu.commit.committedInstType_0::FloatMemRead            0      0.00%    100.00% # Class of committed instruction (Count)
system.cpu.commit.committedInstType_0::FloatMemWrite            0      0.00%    100.00% # Class of committed instruction (Count)
system.cpu.commit.committedInstType_0::IprAccess            0      0.00%    100.00% # Class of committed instruction (Count)
system.cpu.commit.committedInstType_0::InstPrefetch            0      0.00%    100.00% # Class of committed instruction (Count)
system.cpu.commit.committedInstType_0::total     11069163                       # Class of committed instruction (Count)
system.cpu.commit.commitEligibleSamples       1111494                       # number cycles where commit BW limit reached (Cycle)
system.cpu.dcache.demandHits::cpu.data        1935020                       # number of demand (read+write) hits (Count)
system.cpu.dcache.demandHits::total           1935020                       # number of demand (read+write) hits (Count)
system.cpu.dcache.overallHits::cpu.data       1935020                       # number of overall hits (Count)
system.cpu.dcache.overallHits::total          1935020                       # number of overall hits (Count)
system.cpu.dcache.demandMisses::cpu.data       464887                       # number of demand (read+write) misses (Count)
system.cpu.dcache.demandMisses::total          464887                       # number of demand (read+write) misses (Count)
system.cpu.dcache.overallMisses::cpu.data       464887                       # number of overall misses (Count)
system.cpu.dcache.overallMisses::total         464887                       # number of overall misses (Count)
system.cpu.dcache.demandMissLatency::cpu.data  33985978178                       # number of demand (read+write) miss ticks (Tick)
system.cpu.dcache.demandMissLatency::total  33985978178                       # number of demand (read+write) miss ticks (Tick)
system.cpu.dcache.overallMissLatency::cpu.data  33985978178                       # number of overall miss ticks (Tick)
system.cpu.dcache.overallMissLatency::total  33985978178                       # number of overall miss ticks (Tick)
system.cpu.dcache.demandAccesses::cpu.data      2399907                       # number of demand (read+write) accesses (Count)
system.cpu.dcache.demandAccesses::total       2399907                       # number of demand (read+write) accesses (Count)
system.cpu.dcache.overallAccesses::cpu.data      2399907                       # number of overall (read+write) accesses (Count)
system.cpu.dcache.overallAccesses::total      2399907                       # number of overall (read+write) accesses (Count)
system.cpu.dcache.demandMissRate::cpu.data     0.193710                       # miss rate for demand accesses (Ratio)
system.cpu.dcache.demandMissRate::total      0.193710                       # miss rate for demand accesses (Ratio)
system.cpu.dcache.overallMissRate::cpu.data     0.193710                       # miss rate for overall accesses (Ratio)
system.cpu.dcache.overallMissRate::total     0.193710                       # miss rate for overall accesses (Ratio)
system.cpu.dcache.demandAvgMissLatency::cpu.data 73105.890631                       # average overall miss latency in ticks ((Tick/Count))
system.cpu.dcache.demandAvgMissLatency::total 73105.890631                       # average overall miss latency in ticks ((Tick/Count))
system.cpu.dcache.overallAvgMissLatency::cpu.data 73105.890631                       # average overall miss latency ((Tick/Count))
system.cpu.dcache.overallAvgMissLatency::total 73105.890631                       # average overall miss latency ((Tick/Count))
system.cpu.dcache.blockedCycles::no_mshrs      7070974                       # number of cycles access was blocked (Cycle)
system.cpu.dcache.blockedCycles::no_targets            0                       # number of cycles access was blocked (Cycle)
system.cpu.dcache.blockedCauses::no_mshrs       190162                       # number of times access was blocked (Count)
system.cpu.dcache.blockedCauses::no_targets            0                       # number of times access was blocked (Count)
system.cpu.dcache.avgBlocked::no_mshrs      37.183948                       # average number of cycles each access was blocked ((Cycle/Count))
system.cpu.dcache.avgBlocked::no_targets          nan                       # average number of cycles each access was blocked ((Cycle/Count))
system.cpu.dcache.writebacks::writebacks        52178                       # number of writebacks (Count)
system.cpu.dcache.writebacks::total             52178                       # number of writebacks (Count)
system.cpu.dcache.demandMshrHits::cpu.data       206592                       # number of demand (read+write) MSHR hits (Count)
system.cpu.dcache.demandMshrHits::total        206592                       # number of demand (read+write) MSHR hits (Count)
system.cpu.dcache.overallMshrHits::cpu.data       206592                       # number of overall MSHR hits (Count)
system.cpu.dcache.overallMshrHits::total       206592                       # number of overall MSHR hits (Count)
system.cpu.dcache.demandMshrMisses::cpu.data       258295                       # number of demand (read+write) MSHR misses (Count)
system.cpu.dcache.demandMshrMisses::total       258295                       # number of demand (read+write) MSHR misses (Count)
system.cpu.dcache.overallMshrMisses::cpu.data       258295                       # number of overall MSHR misses (Count)
system.cpu.dcache.overallMshrMisses::total       258295                       # number of overall MSHR misses (Count)
system.cpu.dcache.demandMshrMissLatency::cpu.data  20959744178                       # number of demand (read+write) MSHR miss ticks (Tick)
system.cpu.dcache.demandMshrMissLatency::total  20959744178                       # number of demand (read+write) MSHR miss ticks (Tick)
system.cpu.dcache.overallMshrMissLatency::cpu.data  20959744178                       # number of overall MSHR miss ticks (Tick)
system.cpu.dcache.overallMshrMissLatency::total  20959744178                       # number of overall MSHR miss ticks (Tick)
system.cpu.dcache.demandMshrMissRate::cpu.data     0.107627                       # mshr miss ratio for demand accesses (Ratio)
system.cpu.dcache.demandMshrMissRate::total     0.107627                       # mshr miss ratio for demand accesses (Ratio)
system.cpu.dcache.overallMshrMissRate::cpu.data     0.107627                       # mshr miss ratio for overall accesses (Ratio)
system.cpu.dcache.overallMshrMissRate::total     0.107627                       # mshr miss ratio for overall accesses (Ratio)
system.cpu.dcache.demandAvgMshrMissLatency::cpu.data 81146.534691                       # average overall mshr miss latency ((Tick/Count))
system.cpu.dcache.demandAvgMshrMissLatency::total 81146.534691                       # average overall mshr miss latency ((Tick/Count))
system.cpu.dcache.overallAvgMshrMissLatency::cpu.data 81146.534691                       # average overall mshr miss latency ((Tick/Count))
system.cpu.dcache.overallAvgMshrMissLatency::total 81146.534691                       # average overall mshr miss latency ((Tick/Count))
system.cpu.dcache.replacements                 258293                       # number of replacements (Count)
system.cpu.dcache.ReadReq.hits::cpu.data      1912690                       # number of ReadReq hits (Count)
system.cpu.dcache.ReadReq.hits::total         1912690                       # number of ReadReq hits (Count)
system.cpu.dcache.ReadReq.misses::cpu.data       412904                       # number of ReadReq misses (Count)
system.cpu.dcache.ReadReq.misses::total        412904                       # number of ReadReq misses (Count)
system.cpu.dcache.ReadReq.missLatency::cpu.data  29794884000                       # number of ReadReq miss ticks (Tick)
system.cpu.dcache.ReadReq.missLatency::total  29794884000                       # number of ReadReq miss ticks (Tick)
system.cpu.dcache.ReadReq.accesses::cpu.data      2325594                       # number of ReadReq accesses(hits+misses) (Count)
system.cpu.dcache.ReadReq.accesses::total      2325594                       # number of ReadReq accesses(hits+misses) (Count)
system.cpu.dcache.ReadReq.missRate::cpu.data     0.177548                       # miss rate for ReadReq accesses (Ratio)
system.cpu.dcache.ReadReq.missRate::total     0.177548                       # miss rate for ReadReq accesses (Ratio)
system.cpu.dcache.ReadReq.avgMissLatency::cpu.data 72159.349389                       # average ReadReq miss latency ((Tick/Count))
system.cpu.dcache.ReadReq.avgMissLatency::total 72159.349389                       # average ReadReq miss latency ((Tick/Count))
system.cpu.dcache.ReadReq.mshrHits::cpu.data       206592                       # number of ReadReq MSHR hits (Count)
system.cpu.dcache.ReadReq.mshrHits::total       206592                       # number of ReadReq MSHR hits (Count)
system.cpu.dcache.ReadReq.mshrMisses::cpu.data       206312                       # number of ReadReq MSHR misses (Count)
system.cpu.dcache.ReadReq.mshrMisses::total       206312                       # number of ReadReq MSHR misses (Count)
system.cpu.dcache.ReadReq.mshrMissLatency::cpu.data  16820633000                       # number of ReadReq MSHR miss ticks (Tick)
system.cpu.dcache.ReadReq.mshrMissLatency::total  16820633000                       # number of ReadReq MSHR miss ticks (Tick)
system.cpu.dcache.ReadReq.mshrMissRate::cpu.data     0.088714                       # mshr miss rate for ReadReq accesses (Ratio)
system.cpu.dcache.ReadReq.mshrMissRate::total     0.088714                       # mshr miss rate for ReadReq accesses (Ratio)
system.cpu.dcache.ReadReq.avgMshrMissLatency::cpu.data 81530.075808                       # average ReadReq mshr miss latency ((Tick/Count))
system.cpu.dcache.ReadReq.avgMshrMissLatency::total 81530.075808                       # average ReadReq mshr miss latency ((Tick/Count))
system.cpu.dcache.WriteReq.hits::cpu.data        22330                       # number of WriteReq hits (Count)
system.cpu.dcache.WriteReq.hits::total          22330                       # number of WriteReq hits (Count)
system.cpu.dcache.WriteReq.misses::cpu.data        51983                       # number of WriteReq misses (Count)
system.cpu.dcache.WriteReq.misses::total        51983                       # number of WriteReq misses (Count)
system.cpu.dcache.WriteReq.missLatency::cpu.data   4191094178                       # number of WriteReq miss ticks (Tick)
system.cpu.dcache.WriteReq.missLatency::total   4191094178                       # number of WriteReq miss ticks (Tick)
system.cpu.dcache.WriteReq.accesses::cpu.data        74313                       # number of WriteReq accesses(hits+misses) (Count)
system.cpu.dcache.WriteReq.accesses::total        74313                       # number of WriteReq accesses(hits+misses) (Count)
system.cpu.dcache.WriteReq.missRate::cpu.data     0.699514                       # miss rate for WriteReq accesses (Ratio)
system.cpu.dcache.WriteReq.missRate::total     0.699514                       # miss rate for WriteReq accesses (Ratio)
system.cpu.dcache.WriteReq.avgMissLatency::cpu.data 80624.322913                       # average WriteReq miss latency ((Tick/Count))
system.cpu.dcache.WriteReq.avgMissLatency::total 80624.322913                       # average WriteReq miss latency ((Tick/Count))
system.cpu.dcache.WriteReq.mshrMisses::cpu.data        51983                       # number of WriteReq MSHR misses (Count)
system.cpu.dcache.WriteReq.mshrMisses::total        51983                       # number of WriteReq MSHR misses (Count)
system.cpu.dcache.WriteReq.mshrMissLatency::cpu.data   4139111178                       # number of WriteReq MSHR miss ticks (Tick)
system.cpu.dcache.WriteReq.mshrMissLatency::total   4139111178                       # number of WriteReq MSHR miss ticks (Tick)
system.cpu.dcache.WriteReq.mshrMissRate::cpu.data     0.699514                       # mshr miss rate for WriteReq accesses (Ratio)
system.cpu.dcache.WriteReq.mshrMissRate::total     0.699514                       # mshr miss rate for WriteReq accesses (Ratio)
system.cpu.dcache.WriteReq.avgMshrMissLatency::cpu.data 79624.322913                       # average WriteReq mshr miss latency ((Tick/Count))
system.cpu.dcache.WriteReq.avgMshrMissLatency::total 79624.322913                       # average WriteReq mshr miss latency ((Tick/Count))
system.cpu.dcache.power_state.pwrStateResidencyTicks::UNDEFINED   7023677000                       # Cumulative time (in ticks) in various power states (Tick)
system.cpu.dcache.tags.tagsInUse                 1024                       # Average ticks per tags in use ((Tick/Count))
system.cpu.dcache.tags.totalRefs               537085                       # Total number of references to valid blocks. (Count)
system.cpu.dcache.tags.sampledRefs             258293                       # Sample count of references to valid blocks. (Count)
system.cpu.dcache.tags.avgRefs               2.079363                       # Average number of references to valid blocks. ((Count/Count))
system.cpu.dcache.tags.warmupTick                   0                       # The tick when the warmup percentage was hit. (Tick)
system.cpu.dcache.tags.occupancies::cpu.data         1024                       # Average occupied blocks per tick, per requestor ((Count/Tick))
system.cpu.dcache.tags.avgOccs::cpu.data            1                       # Average percentage of cache occupancy ((Ratio/Tick))
system.cpu.dcache.tags.avgOccs::total               1                       # Average percentage of cache occupancy ((Ratio/Tick))
system.cpu.dcache.tags.occupanciesTaskId::1024         1024                       # Occupied blocks per task id (Count)
system.cpu.dcache.tags.ageTaskId_1024::0          424                       # Occupied blocks per task id, per block age (Count)
system.cpu.dcache.tags.ageTaskId_1024::1          583                       # Occupied blocks per task id, per block age (Count)
system.cpu.dcache.tags.ageTaskId_1024::2            8                       # Occupied blocks per task id, per block age (Count)
system.cpu.dcache.tags.ageTaskId_1024::3            9                       # Occupied blocks per task id, per block age (Count)
system.cpu.dcache.tags.ratioOccsTaskId::1024            1                       # Ratio of occupied blocks and all blocks, per task id (Ratio)
system.cpu.dcache.tags.tagAccesses            9857921                       # Number of tag accesses (Count)
system.cpu.dcache.tags.dataAccesses           9857921                       # Number of data accesses (Count)
system.cpu.dcache.tags.power_state.pwrStateResidencyTicks::UNDEFINED   7023677000                       # Cumulative time (in ticks) in various power states (Tick)
system.cpu.decode.idleCycles                   352144                       # Number of cycles decode is idle (Cycle)
system.cpu.decode.blockedCycles              10280755                       # Number of cycles decode is blocked (Cycle)
system.cpu.decode.runCycles                    791734                       # Number of cycles decode is running (Cycle)
system.cpu.decode.unblockCycles                637363                       # Number of cycles decode is unblocking (Cycle)
system.cpu.decode.squashCycles                   1248                       # Number of cycles decode is squashing (Cycle)
system.cpu.decode.branchResolved                53217                       # Number of times decode resolved a branch (Count)
system.cpu.decode.branchMispred                     3                       # Number of times decode detected a branch misprediction (Count)
system.cpu.decode.decodedInsts               11149005                       # Number of instructions handled by decode (Count)
system.cpu.decode.squashedInsts                    15                       # Number of squashed instructions handled by decode (Count)
system.cpu.fetch.icacheStallCycles             687498                       # Number of cycles fetch is stalled on an Icache miss (Cycle)
system.cpu.fetch.insts                       10215100                       # Number of instructions fetch has processed (Count)
system.cpu.fetch.branches                       54285                       # Number of branches that fetch encountered (Count)
system.cpu.fetch.predictedBranches              53224                       # Number of branches that fetch has predicted taken (Count)
system.cpu.fetch.cycles                      11374496                       # Number of cycles fetch has run and was not squashing or blocked (Cycle)
system.cpu.fetch.squashCycles                    2500                       # Number of cycles fetch has spent squashing (Cycle)
system.cpu.fetch.cacheLines                    685625                       # Number of cache lines fetched (Count)
system.cpu.fetch.icacheSquashes                    30                       # Number of outstanding Icache misses that were squashed (Count)
system.cpu.fetch.nisnDist::samples           12063244                       # Number of instructions fetched each cycle (Total) (Count)
system.cpu.fetch.nisnDist::mean              0.925968                       # Number of instructions fetched each cycle (Total) (Count)
system.cpu.fetch.nisnDist::stdev             2.431076                       # Number of instructions fetched each cycle (Total) (Count)
system.cpu.fetch.nisnDist::underflows               0      0.00%      0.00% # Number of instructions fetched each cycle (Total) (Count)
system.cpu.fetch.nisnDist::0                 10289965     85.30%     85.30% # Number of instructions fetched each cycle (Total) (Count)
system.cpu.fetch.nisnDist::1                   148724      1.23%     86.53% # Number of instructions fetched each cycle (Total) (Count)
system.cpu.fetch.nisnDist::2                   147287      1.22%     87.75% # Number of instructions fetched each cycle (Total) (Count)
system.cpu.fetch.nisnDist::3                    91777      0.76%     88.51% # Number of instructions fetched each cycle (Total) (Count)
system.cpu.fetch.nisnDist::4                      465      0.00%     88.52% # Number of instructions fetched each cycle (Total) (Count)
system.cpu.fetch.nisnDist::5                   116392      0.96%     89.48% # Number of instructions fetched each cycle (Total) (Count)
system.cpu.fetch.nisnDist::6                    92510      0.77%     90.25% # Number of instructions fetched each cycle (Total) (Count)
system.cpu.fetch.nisnDist::7                    96324      0.80%     91.05% # Number of instructions fetched each cycle (Total) (Count)
system.cpu.fetch.nisnDist::8                  1079800      8.95%    100.00% # Number of instructions fetched each cycle (Total) (Count)
system.cpu.fetch.nisnDist::overflows                0      0.00%    100.00% # Number of instructions fetched each cycle (Total) (Count)
system.cpu.fetch.nisnDist::min_value                0                       # Number of instructions fetched each cycle (Total) (Count)
system.cpu.fetch.nisnDist::max_value                8                       # Number of instructions fetched each cycle (Total) (Count)
system.cpu.fetch.nisnDist::total             12063244                       # Number of instructions fetched each cycle (Total) (Count)
system.cpu.fetch.branchRate                  0.004499                       # Number of branch fetches per cycle (Ratio)
system.cpu.fetch.rate                        0.846619                       # Number of inst fetches per cycle ((Count/Cycle))
system.cpu.icache.demandHits::cpu.inst         685599                       # number of demand (read+write) hits (Count)
system.cpu.icache.demandHits::total            685599                       # number of demand (read+write) hits (Count)
system.cpu.icache.overallHits::cpu.inst        685599                       # number of overall hits (Count)
system.cpu.icache.overallHits::total           685599                       # number of overall hits (Count)
system.cpu.icache.demandMisses::cpu.inst           26                       # number of demand (read+write) misses (Count)
system.cpu.icache.demandMisses::total              26                       # number of demand (read+write) misses (Count)
system.cpu.icache.overallMisses::cpu.inst           26                       # number of overall misses (Count)
system.cpu.icache.overallMisses::total             26                       # number of overall misses (Count)
system.cpu.icache.demandMissLatency::cpu.inst      2016000                       # number of demand (read+write) miss ticks (Tick)
system.cpu.icache.demandMissLatency::total      2016000                       # number of demand (read+write) miss ticks (Tick)
system.cpu.icache.overallMissLatency::cpu.inst      2016000                       # number of overall miss ticks (Tick)
system.cpu.icache.overallMissLatency::total      2016000                       # number of overall miss ticks (Tick)
system.cpu.icache.demandAccesses::cpu.inst       685625                       # number of demand (read+write) accesses (Count)
system.cpu.icache.demandAccesses::total        685625                       # number of demand (read+write) accesses (Count)
system.cpu.icache.overallAccesses::cpu.inst       685625                       # number of overall (read+write) accesses (Count)
system.cpu.icache.overallAccesses::total       685625                       # number of overall (read+write) accesses (Count)
system.cpu.icache.demandMissRate::cpu.inst     0.000038                       # miss rate for demand accesses (Ratio)
system.cpu.icache.demandMissRate::total      0.000038                       # miss rate for demand accesses (Ratio)
system.cpu.icache.overallMissRate::cpu.inst     0.000038                       # miss rate for overall accesses (Ratio)
system.cpu.icache.overallMissRate::total     0.000038                       # miss rate for overall accesses (Ratio)
system.cpu.icache.demandAvgMissLatency::cpu.inst 77538.461538                       # average overall miss latency in ticks ((Tick/Count))
system.cpu.icache.demandAvgMissLatency::total 77538.461538                       # average overall miss latency in ticks ((Tick/Count))
system.cpu.icache.overallAvgMissLatency::cpu.inst 77538.461538                       # average overall miss latency ((Tick/Count))
system.cpu.icache.overallAvgMissLatency::total 77538.461538                       # average overall miss latency ((Tick/Count))
system.cpu.icache.blockedCycles::no_mshrs            0                       # number of cycles access was blocked (Cycle)
system.cpu.icache.blockedCycles::no_targets            0                       # number of cycles access was blocked (Cycle)
system.cpu.icache.blockedCauses::no_mshrs            0                       # number of times access was blocked (Count)
system.cpu.icache.blockedCauses::no_targets            0                       # number of times access was blocked (Count)
system.cpu.icache.avgBlocked::no_mshrs            nan                       # average number of cycles each access was blocked ((Cycle/Count))
system.cpu.icache.avgBlocked::no_targets          nan                       # average number of cycles each access was blocked ((Cycle/Count))
system.cpu.icache.writebacks::writebacks           22                       # number of writebacks (Count)
system.cpu.icache.writebacks::total                22                       # number of writebacks (Count)
system.cpu.icache.demandMshrHits::cpu.inst            5                       # number of demand (read+write) MSHR hits (Count)
system.cpu.icache.demandMshrHits::total             5                       # number of demand (read+write) MSHR hits (Count)
system.cpu.icache.overallMshrHits::cpu.inst            5                       # number of overall MSHR hits (Count)
system.cpu.icache.overallMshrHits::total            5                       # number of overall MSHR hits (Count)
system.cpu.icache.demandMshrMisses::cpu.inst           21                       # number of demand (read+write) MSHR misses (Count)
system.cpu.icache.demandMshrMisses::total           21                       # number of demand (read+write) MSHR misses (Count)
system.cpu.icache.overallMshrMisses::cpu.inst           21                       # number of overall MSHR misses (Count)
system.cpu.icache.overallMshrMisses::total           21                       # number of overall MSHR misses (Count)
system.cpu.icache.demandMshrMissLatency::cpu.inst      1761000                       # number of demand (read+write) MSHR miss ticks (Tick)
system.cpu.icache.demandMshrMissLatency::total      1761000                       # number of demand (read+write) MSHR miss ticks (Tick)
system.cpu.icache.overallMshrMissLatency::cpu.inst      1761000                       # number of overall MSHR miss ticks (Tick)
system.cpu.icache.overallMshrMissLatency::total      1761000                       # number of overall MSHR miss ticks (Tick)
system.cpu.icache.demandMshrMissRate::cpu.inst     0.000031                       # mshr miss ratio for demand accesses (Ratio)
system.cpu.icache.demandMshrMissRate::total     0.000031                       # mshr miss ratio for demand accesses (Ratio)
system.cpu.icache.overallMshrMissRate::cpu.inst     0.000031                       # mshr miss ratio for overall accesses (Ratio)
system.cpu.icache.overallMshrMissRate::total     0.000031                       # mshr miss ratio for overall accesses (Ratio)
system.cpu.icache.demandAvgMshrMissLatency::cpu.inst 83857.142857                       # average overall mshr miss latency ((Tick/Count))
system.cpu.icache.demandAvgMshrMissLatency::total 83857.142857                       # average overall mshr miss latency ((Tick/Count))
system.cpu.icache.overallAvgMshrMissLatency::cpu.inst 83857.142857                       # average overall mshr miss latency ((Tick/Count))
system.cpu.icache.overallAvgMshrMissLatency::total 83857.142857                       # average overall mshr miss latency ((Tick/Count))
system.cpu.icache.replacements                     22                       # number of replacements (Count)
system.cpu.icache.ReadReq.hits::cpu.inst       685599                       # number of ReadReq hits (Count)
system.cpu.icache.ReadReq.hits::total          685599                       # number of ReadReq hits (Count)
system.cpu.icache.ReadReq.misses::cpu.inst           26                       # number of ReadReq misses (Count)
system.cpu.icache.ReadReq.misses::total            26                       # number of ReadReq misses (Count)
system.cpu.icache.ReadReq.missLatency::cpu.inst      2016000                       # number of ReadReq miss ticks (Tick)
system.cpu.icache.ReadReq.missLatency::total      2016000                       # number of ReadReq miss ticks (Tick)
system.cpu.icache.ReadReq.accesses::cpu.inst       685625                       # number of ReadReq accesses(hits+misses) (Count)
system.cpu.icache.ReadReq.accesses::total       685625                       # number of ReadReq accesses(hits+misses) (Count)
system.cpu.icache.ReadReq.missRate::cpu.inst     0.000038                       # miss rate for ReadReq accesses (Ratio)
system.cpu.icache.ReadReq.missRate::total     0.000038                       # miss rate for ReadReq accesses (Ratio)
system.cpu.icache.ReadReq.avgMissLatency::cpu.inst 77538.461538                       # average ReadReq miss latency ((Tick/Count))
system.cpu.icache.ReadReq.avgMissLatency::total 77538.461538                       # average ReadReq miss latency ((Tick/Count))
system.cpu.icache.ReadReq.mshrHits::cpu.inst            5                       # number of ReadReq MSHR hits (Count)
system.cpu.icache.ReadReq.mshrHits::total            5                       # number of ReadReq MSHR hits (Count)
system.cpu.icache.ReadReq.mshrMisses::cpu.inst           21                       # number of ReadReq MSHR misses (Count)
system.cpu.icache.ReadReq.mshrMisses::total           21                       # number of ReadReq MSHR misses (Count)
system.cpu.icache.ReadReq.mshrMissLatency::cpu.inst      1761000                       # number of ReadReq MSHR miss ticks (Tick)
system.cpu.icache.ReadReq.mshrMissLatency::total      1761000                       # number of ReadReq MSHR miss ticks (Tick)
system.cpu.icache.ReadReq.mshrMissRate::cpu.inst     0.000031                       # mshr miss rate for ReadReq accesses (Ratio)
system.cpu.icache.ReadReq.mshrMissRate::total     0.000031                       # mshr miss rate for ReadReq accesses (Ratio)
system.cpu.icache.ReadReq.avgMshrMissLatency::cpu.inst 83857.142857                       # average ReadReq mshr miss latency ((Tick/Count))
system.cpu.icache.ReadReq.avgMshrMissLatency::total 83857.142857                       # average ReadReq mshr miss latency ((Tick/Count))
system.cpu.icache.power_state.pwrStateResidencyTicks::UNDEFINED   7023677000                       # Cumulative time (in ticks) in various power states (Tick)
system.cpu.icache.tags.tagsInUse                  256                       # Average ticks per tags in use ((Tick/Count))
system.cpu.icache.tags.totalRefs                  529                       # Total number of references to valid blocks. (Count)
system.cpu.icache.tags.sampledRefs                 22                       # Sample count of references to valid blocks. (Count)
system.cpu.icache.tags.avgRefs              24.045455                       # Average number of references to valid blocks. ((Count/Count))
system.cpu.icache.tags.warmupTick                   0                       # The tick when the warmup percentage was hit. (Tick)
system.cpu.icache.tags.occupancies::cpu.inst          256                       # Average occupied blocks per tick, per requestor ((Count/Tick))
system.cpu.icache.tags.avgOccs::cpu.inst            1                       # Average percentage of cache occupancy ((Ratio/Tick))
system.cpu.icache.tags.avgOccs::total               1                       # Average percentage of cache occupancy ((Ratio/Tick))
system.cpu.icache.tags.occupanciesTaskId::1024          256                       # Occupied blocks per task id (Count)
system.cpu.icache.tags.ageTaskId_1024::3          256                       # Occupied blocks per task id, per block age (Count)
system.cpu.icache.tags.ratioOccsTaskId::1024            1                       # Ratio of occupied blocks and all blocks, per task id (Ratio)
system.cpu.icache.tags.tagAccesses            2742522                       # Number of tag accesses (Count)
system.cpu.icache.tags.dataAccesses           2742522                       # Number of data accesses (Count)
system.cpu.icache.tags.power_state.pwrStateResidencyTicks::UNDEFINED   7023677000                       # Cumulative time (in ticks) in various power states (Tick)
system.cpu.iew.idleCycles                           0                       # Number of cycles IEW is idle (Cycle)
system.cpu.iew.squashCycles                      1248                       # Number of cycles IEW is squashing (Cycle)
system.cpu.iew.blockCycles                    4084569                       # Number of cycles IEW is blocking (Cycle)
system.cpu.iew.unblockCycles                  2002467                       # Number of cycles IEW is unblocking (Cycle)
system.cpu.iew.dispatchedInsts               11130835                       # Number of instructions dispatched to IQ (Count)
system.cpu.iew.dispSquashedInsts                   73                       # Number of squashed instructions skipped by dispatch (Count)
system.cpu.iew.dispLoadInsts                  2327475                       # Number of dispatched load instructions (Count)
system.cpu.iew.dispStoreInsts                   74796                       # Number of dispatched store instructions (Count)
system.cpu.iew.dispNonSpecInsts                     2                       # Number of dispatched non-speculative instructions (Count)
system.cpu.iew.iqFullEvents                    322526                       # Number of times the IQ has become full, causing a stall (Count)
system.cpu.iew.lsqFullEvents                  1676158                       # Number of times the LSQ has become full, causing a stall (Count)
system.cpu.iew.memOrderViolationEvents             14                       # Number of memory order violations (Count)
system.cpu.iew.predictedTakenIncorrect            931                       # Number of branches that were predicted taken incorrectly (Count)
system.cpu.iew.predictedNotTakenIncorrect           13                       # Number of branches that were predicted not taken incorrectly (Count)
system.cpu.iew.branchMispredicts                  944                       # Number of branch mispredicts detected at execute (Count)
system.cpu.iew.instsToCommit                 11107210                       # Cumulative count of insts sent to commit (Count)
system.cpu.iew.writebackCount                11105370                       # Cumulative count of insts written-back (Count)
system.cpu.iew.producerInst                   8416357                       # Number of instructions producing a value (Count)
system.cpu.iew.consumerInst                  11225974                       # Number of instructions consuming a value (Count)
system.cpu.iew.wbRate                        0.920404                       # Insts written-back per cycle ((Count/Cycle))
system.cpu.iew.wbFanout                      0.749722                       # Average fanout of values written-back ((Count/Count))
system.cpu.lsq0.forwLoads                          17                       # Number of loads that had data forwarded from stores (Count)
system.cpu.lsq0.squashedLoads                   13199                       # Number of loads squashed (Count)
system.cpu.lsq0.ignoredResponses                    0                       # Number of memory responses ignored because the instruction is squashed (Count)
system.cpu.lsq0.memOrderViolation                  14                       # Number of memory ordering violations (Count)
system.cpu.lsq0.squashedStores                    487                       # Number of stores squashed (Count)
system.cpu.lsq0.rescheduledLoads                    8                       # Number of loads that were rescheduled (Count)
system.cpu.lsq0.blockedByCache                 190123                       # Number of times an access to memory failed due to the cache being blocked (Count)
system.cpu.lsq0.loadToUse::samples            2314274                       # Distribution of cycle latency between the first time a load is issued and its completion (Unspecified)
system.cpu.lsq0.loadToUse::mean             45.283183                       # Distribution of cycle latency between the first time a load is issued and its completion (Unspecified)
system.cpu.lsq0.loadToUse::stdev            78.257184                       # Distribution of cycle latency between the first time a load is issued and its completion (Unspecified)
system.cpu.lsq0.loadToUse::0-9                1593270     68.85%     68.85% # Distribution of cycle latency between the first time a load is issued and its completion (Unspecified)
system.cpu.lsq0.loadToUse::10-19                 5300      0.23%     69.07% # Distribution of cycle latency between the first time a load is issued and its completion (Unspecified)
system.cpu.lsq0.loadToUse::20-29                32066      1.39%     70.46% # Distribution of cycle latency between the first time a load is issued and its completion (Unspecified)
system.cpu.lsq0.loadToUse::30-39                13007      0.56%     71.02% # Distribution of cycle latency between the first time a load is issued and its completion (Unspecified)
system.cpu.lsq0.loadToUse::40-49                28329      1.22%     72.25% # Distribution of cycle latency between the first time a load is issued and its completion (Unspecified)
system.cpu.lsq0.loadToUse::50-59                21570      0.93%     73.18% # Distribution of cycle latency between the first time a load is issued and its completion (Unspecified)
system.cpu.lsq0.loadToUse::60-69                22610      0.98%     74.16% # Distribution of cycle latency between the first time a load is issued and its completion (Unspecified)
system.cpu.lsq0.loadToUse::70-79                24161      1.04%     75.20% # Distribution of cycle latency between the first time a load is issued and its completion (Unspecified)
system.cpu.lsq0.loadToUse::80-89                33366      1.44%     76.64% # Distribution of cycle latency between the first time a load is issued and its completion (Unspecified)
system.cpu.lsq0.loadToUse::90-99                21297      0.92%     77.56% # Distribution of cycle latency between the first time a load is issued and its completion (Unspecified)
system.cpu.lsq0.loadToUse::100-109              77266      3.34%     80.90% # Distribution of cycle latency between the first time a load is issued and its completion (Unspecified)
system.cpu.lsq0.loadToUse::110-119               5066      0.22%     81.12% # Distribution of cycle latency between the first time a load is issued and its completion (Unspecified)
system.cpu.lsq0.loadToUse::120-129               5479      0.24%     81.36% # Distribution of cycle latency between the first time a load is issued and its completion (Unspecified)
system.cpu.lsq0.loadToUse::130-139               4012      0.17%     81.53% # Distribution of cycle latency between the first time a load is issued and its completion (Unspecified)
system.cpu.lsq0.loadToUse::140-149             127079      5.49%     87.02% # Distribution of cycle latency between the first time a load is issued and its completion (Unspecified)
system.cpu.lsq0.loadToUse::150-159             150362      6.50%     93.52% # Distribution of cycle latency between the first time a load is issued and its completion (Unspecified)
system.cpu.lsq0.loadToUse::160-169              13710      0.59%     94.11% # Distribution of cycle latency between the first time a load is issued and its completion (Unspecified)
system.cpu.lsq0.loadToUse::170-179              32561      1.41%     95.52% # Distribution of cycle latency between the first time a load is issued and its completion (Unspecified)
system.cpu.lsq0.loadToUse::180-189              22612      0.98%     96.49% # Distribution of cycle latency between the first time a load is issued and its completion (Unspecified)
system.cpu.lsq0.loadToUse::190-199               8924      0.39%     96.88% # Distribution of cycle latency between the first time a load is issued and its completion (Unspecified)
system.cpu.lsq0.loadToUse::200-209               6564      0.28%     97.16% # Distribution of cycle latency between the first time a load is issued and its completion (Unspecified)
system.cpu.lsq0.loadToUse::210-219              13677      0.59%     97.75% # Distribution of cycle latency between the first time a load is issued and its completion (Unspecified)
system.cpu.lsq0.loadToUse::220-229               4803      0.21%     97.96% # Distribution of cycle latency between the first time a load is issued and its completion (Unspecified)
system.cpu.lsq0.loadToUse::230-239               7588      0.33%     98.29% # Distribution of cycle latency between the first time a load is issued and its completion (Unspecified)
system.cpu.lsq0.loadToUse::240-249               2924      0.13%     98.42% # Distribution of cycle latency between the first time a load is issued and its completion (Unspecified)
system.cpu.lsq0.loadToUse::250-259               2382      0.10%     98.52% # Distribution of cycle latency between the first time a load is issued and its completion (Unspecified)
system.cpu.lsq0.loadToUse::260-269               2628      0.11%     98.63% # Distribution of cycle latency between the first time a load is issued and its completion (Unspecified)
system.cpu.lsq0.loadToUse::270-279               1861      0.08%     98.71% # Distribution of cycle latency between the first time a load is issued and its completion (Unspecified)
system.cpu.lsq0.loadToUse::280-289               1786      0.08%     98.79% # Distribution of cycle latency between the first time a load is issued and its completion (Unspecified)
system.cpu.lsq0.loadToUse::290-299               1582      0.07%     98.86% # Distribution of cycle latency between the first time a load is issued and its completion (Unspecified)
system.cpu.lsq0.loadToUse::overflows            26432      1.14%    100.00% # Distribution of cycle latency between the first time a load is issued and its completion (Unspecified)
system.cpu.lsq0.loadToUse::min_value                2                       # Distribution of cycle latency between the first time a load is issued and its completion (Unspecified)
system.cpu.lsq0.loadToUse::max_value             1108                       # Distribution of cycle latency between the first time a load is issued and its completion (Unspecified)
system.cpu.lsq0.loadToUse::total              2314274                       # Distribution of cycle latency between the first time a load is issued and its completion (Unspecified)
system.cpu.mmu.alignFaults                          0                       # Number of MMU faults due to alignment restrictions (Count)
system.cpu.mmu.prefetchFaults                       0                       # Number of MMU faults due to prefetch (Count)
system.cpu.mmu.domainFaults                         0                       # Number of MMU faults due to domain restrictions (Count)
system.cpu.mmu.permsFaults                          0                       # Number of MMU faults due to permissions restrictions (Count)
system.cpu.mmu.dtb.readHits                         0                       # Read hits (Count)
system.cpu.mmu.dtb.readMisses                       0                       # Read misses (Count)
[...]
system.mem_ctrls.dram.perBankWrBursts::10            0                       # Per bank write bursts (Count)
system.mem_ctrls.dram.perBankWrBursts::11            0                       # Per bank write bursts (Count)
system.mem_ctrls.dram.perBankWrBursts::12           15                       # Per bank write bursts (Count)
system.mem_ctrls.dram.perBankWrBursts::13            0                       # Per bank write bursts (Count)
system.mem_ctrls.dram.perBankWrBursts::14           28                       # Per bank write bursts (Count)
system.mem_ctrls.dram.perBankWrBursts::15           19                       # Per bank write bursts (Count)
system.mem_ctrls.dram.totQLat                 9290750                       # Total ticks spent queuing (Tick)
system.mem_ctrls.dram.totBusLat               2645000                       # Total ticks spent in databus transfers (Tick)
system.mem_ctrls.dram.totMemAccLat           19209500                       # Total ticks spent from burst creation until serviced by the DRAM (Tick)
system.mem_ctrls.dram.avgQLat                17562.85                       # Average queueing delay per DRAM burst ((Tick/Count))
system.mem_ctrls.dram.avgBusLat               5000.00                       # Average bus latency per DRAM burst ((Tick/Count))
system.mem_ctrls.dram.avgMemAccLat           36312.85                       # Average memory access latency per DRAM burst ((Tick/Count))
system.mem_ctrls.dram.readRowHits                 333                       # Number of row buffer hits during reads (Count)
system.mem_ctrls.dram.writeRowHits                109                       # Number of row buffer hits during writes (Count)
system.mem_ctrls.dram.readRowHitRate            62.95                       # Row buffer hit rate for reads (Ratio)
system.mem_ctrls.dram.writeRowHitRate           81.95                       # Row buffer hit rate for writes (Ratio)
system.mem_ctrls.dram.bytesPerActivate::samples          211                       # Bytes accessed per row activation (Byte)
system.mem_ctrls.dram.bytesPerActivate::mean   189.876777                       # Bytes accessed per row activation (Byte)
system.mem_ctrls.dram.bytesPerActivate::gmean   130.001716                       # Bytes accessed per row activation (Byte)
system.mem_ctrls.dram.bytesPerActivate::stdev   197.743566                       # Bytes accessed per row activation (Byte)
system.mem_ctrls.dram.bytesPerActivate::0-127          100     47.39%     47.39% # Bytes accessed per row activation (Byte)
system.mem_ctrls.dram.bytesPerActivate::128-255           54     25.59%     72.99% # Bytes accessed per row activation (Byte)
system.mem_ctrls.dram.bytesPerActivate::256-383           24     11.37%     84.36% # Bytes accessed per row activation (Byte)
system.mem_ctrls.dram.bytesPerActivate::384-511           15      7.11%     91.47% # Bytes accessed per row activation (Byte)
system.mem_ctrls.dram.bytesPerActivate::512-639            4      1.90%     93.36% # Bytes accessed per row activation (Byte)
system.mem_ctrls.dram.bytesPerActivate::640-767            6      2.84%     96.21% # Bytes accessed per row activation (Byte)
system.mem_ctrls.dram.bytesPerActivate::768-895            4      1.90%     98.10% # Bytes accessed per row activation (Byte)
system.mem_ctrls.dram.bytesPerActivate::896-1023            3      1.42%     99.53% # Bytes accessed per row activation (Byte)
system.mem_ctrls.dram.bytesPerActivate::1024-1151            1      0.47%    100.00% # Bytes accessed per row activation (Byte)
system.mem_ctrls.dram.bytesPerActivate::total          211                       # Bytes accessed per row activation (Byte)
system.mem_ctrls.dram.bytesRead                 33856                       # Total bytes read (Byte)
system.mem_ctrls.dram.bytesWritten               8512                       # Total bytes written (Byte)
system.mem_ctrls.dram.avgRdBW             1264.085427                       # Average DRAM read bandwidth in MiBytes/s ((Byte/Second))
system.mem_ctrls.dram.avgWrBW              317.813538                       # Average DRAM write bandwidth in MiBytes/s ((Byte/Second))
system.mem_ctrls.dram.peakBW                 12800.00                       # Theoretical peak bandwidth in MiByte/s ((Byte/Second))
system.mem_ctrls.dram.busUtil                   12.36                       # Data bus utilization in percentage (Ratio)
system.mem_ctrls.dram.busUtilRead                9.88                       # Data bus utilization in percentage for reads (Ratio)
system.mem_ctrls.dram.busUtilWrite               2.48                       # Data bus utilization in percentage for writes (Ratio)
system.mem_ctrls.dram.pageHitRate               66.77                       # Row buffer hit rate, read and write combined (Ratio)
system.mem_ctrls.dram.power_state.pwrStateResidencyTicks::UNDEFINED     26783000                       # Cumulative time (in ticks) in various power states (Tick)
system.mem_ctrls.dram.rank0.actEnergy          849660                       # Energy for activate commands per rank (pJ) (Joule)
system.mem_ctrls.dram.rank0.preEnergy          432630                       # Energy for precharge commands per rank (pJ) (Joule)
system.mem_ctrls.dram.rank0.readEnergy        1977780                       # Energy for read commands per rank (pJ) (Joule)
system.mem_ctrls.dram.rank0.writeEnergy        354960                       # Energy for write commands per rank (pJ) (Joule)
system.mem_ctrls.dram.rank0.refreshEnergy 1843920.000000                       # Energy for refresh commands per rank (pJ) (Joule)
system.mem_ctrls.dram.rank0.actBackEnergy     12026430                       # Energy for active background per rank (pJ) (Joule)
system.mem_ctrls.dram.rank0.preBackEnergy       156960                       # Energy for precharge background per rank (pJ) (Joule)
system.mem_ctrls.dram.rank0.actPowerDownEnergy            0                       # Energy for active power-down per rank (pJ) (Joule)
system.mem_ctrls.dram.rank0.prePowerDownEnergy            0                       # Energy for precharge power-down per rank (pJ) (Joule)
system.mem_ctrls.dram.rank0.selfRefreshEnergy            0                       # Energy for self refresh per rank (pJ) (Joule)
system.mem_ctrls.dram.rank0.totalEnergy      17642340                       # Total energy per rank (pJ) (Joule)
system.mem_ctrls.dram.rank0.averagePower   658.714110                       # Core power per rank (mW) (Watt)
system.mem_ctrls.dram.rank0.totalIdleTime            0                       # Total Idle time Per DRAM Rank (Tick)
system.mem_ctrls.dram.rank0.pwrStateTime::IDLE       325750                       # Time in different power states (Tick)
system.mem_ctrls.dram.rank0.pwrStateTime::REF       780000                       # Time in different power states (Tick)
system.mem_ctrls.dram.rank0.pwrStateTime::SREF            0                       # Time in different power states (Tick)
system.mem_ctrls.dram.rank0.pwrStateTime::PRE_PDN            0                       # Time in different power states (Tick)
system.mem_ctrls.dram.rank0.pwrStateTime::ACT     25677250                       # Time in different power states (Tick)
system.mem_ctrls.dram.rank0.pwrStateTime::ACT_PDN            0                       # Time in different power states (Tick)
system.mem_ctrls.dram.rank1.actEnergy          721140                       # Energy for activate commands per rank (pJ) (Joule)
system.mem_ctrls.dram.rank1.preEnergy          368115                       # Energy for precharge commands per rank (pJ) (Joule)
system.mem_ctrls.dram.rank1.readEnergy        1799280                       # Energy for read commands per rank (pJ) (Joule)
system.mem_ctrls.dram.rank1.writeEnergy        339300                       # Energy for write commands per rank (pJ) (Joule)
system.mem_ctrls.dram.rank1.refreshEnergy 1843920.000000                       # Energy for refresh commands per rank (pJ) (Joule)
system.mem_ctrls.dram.rank1.actBackEnergy     12004770                       # Energy for active background per rank (pJ) (Joule)
system.mem_ctrls.dram.rank1.preBackEnergy       175200                       # Energy for precharge background per rank (pJ) (Joule)
system.mem_ctrls.dram.rank1.actPowerDownEnergy            0                       # Energy for active power-down per rank (pJ) (Joule)
system.mem_ctrls.dram.rank1.prePowerDownEnergy            0                       # Energy for precharge power-down per rank (pJ) (Joule)
system.mem_ctrls.dram.rank1.selfRefreshEnergy            0                       # Energy for self refresh per rank (pJ) (Joule)
system.mem_ctrls.dram.rank1.totalEnergy      17251725                       # Total energy per rank (pJ) (Joule)
system.mem_ctrls.dram.rank1.averagePower   644.129672                       # Core power per rank (mW) (Watt)
system.mem_ctrls.dram.rank1.totalIdleTime            0                       # Total Idle time Per DRAM Rank (Tick)
system.mem_ctrls.dram.rank1.pwrStateTime::IDLE       372500                       # Time in different power states (Tick)
system.mem_ctrls.dram.rank1.pwrStateTime::REF       780000                       # Time in different power states (Tick)
system.mem_ctrls.dram.rank1.pwrStateTime::SREF            0                       # Time in different power states (Tick)
system.mem_ctrls.dram.rank1.pwrStateTime::PRE_PDN            0                       # Time in different power states (Tick)
system.mem_ctrls.dram.rank1.pwrStateTime::ACT     25630500                       # Time in different power states (Tick)
system.mem_ctrls.dram.rank1.pwrStateTime::ACT_PDN            0                       # Time in different power states (Tick)
system.mem_ctrls.power_state.pwrStateResidencyTicks::UNDEFINED     26783000                       # Cumulative time (in ticks) in various power states (Tick)
system.membus.transDist::ReadResp                 509                       # Transaction distribution (Count)
system.membus.transDist::WritebackDirty           121                       # Transaction distribution (Count)
system.membus.transDist::CleanEvict               579                       # Transaction distribution (Count)
system.membus.transDist::ReadExReq                 22                       # Transaction distribution (Count)
system.membus.transDist::ReadExResp                22                       # Transaction distribution (Count)
system.membus.transDist::ReadSharedReq            507                       # Transaction distribution (Count)
system.membus.transDist::InvalidateReq              1                       # Transaction distribution (Count)
system.membus.pktCount_system.l2.mem_side_port::system.mem_ctrls.port         1761                       # Packet count per connected requestor and responder (Count)
system.membus.pktCount::total                    1761                       # Packet count per connected requestor and responder (Count)
system.membus.pktSize_system.l2.mem_side_port::system.mem_ctrls.port        41728                       # Cumulative packet size per connected requestor and responder (Byte)
system.membus.pktSize::total                    41728                       # Cumulative packet size per connected requestor and responder (Byte)
system.membus.snoops                                0                       # Total snoops (Count)
system.membus.snoopTraffic                          0                       # Total snoop traffic (Byte)
system.membus.snoopFanout::samples                530                       # Request fanout histogram (Count)
system.membus.snoopFanout::mean                     0                       # Request fanout histogram (Count)
system.membus.snoopFanout::stdev                    0                       # Request fanout histogram (Count)
system.membus.snoopFanout::underflows               0      0.00%      0.00% # Request fanout histogram (Count)
system.membus.snoopFanout::0                      530    100.00%    100.00% # Request fanout histogram (Count)
system.membus.snoopFanout::1                        0      0.00%    100.00% # Request fanout histogram (Count)
system.membus.snoopFanout::overflows                0      0.00%    100.00% # Request fanout histogram (Count)
system.membus.snoopFanout::min_value                0                       # Request fanout histogram (Count)
system.membus.snoopFanout::max_value                0                       # Request fanout histogram (Count)
system.membus.snoopFanout::total                  530                       # Request fanout histogram (Count)
system.membus.power_state.pwrStateResidencyTicks::UNDEFINED     26783000                       # Cumulative time (in ticks) in various power states (Tick)
system.membus.reqLayer0.occupancy             1846000                       # Layer occupancy (ticks) (Tick)
system.membus.reqLayer0.utilization               0.1                       # Layer utilization (Ratio)
system.membus.respLayer1.occupancy            2851750                       # Layer occupancy (ticks) (Tick)
system.membus.respLayer1.utilization              0.1                       # Layer utilization (Ratio)
system.membus.snoop_filter.totRequests           1230                       # Total number of requests made to the snoop filter. (Count)
system.membus.snoop_filter.hitSingleRequests          700                       # Number of requests hitting in the snoop filter with a single holder of the requested data. (Count)
system.membus.snoop_filter.hitMultiRequests            0                       # Number of requests hitting in the snoop filter with multiple (>1) holders of the requested data. (Count)
system.membus.snoop_filter.totSnoops                0                       # Total number of snoops made to the snoop filter. (Count)
system.membus.snoop_filter.hitSingleSnoops            0                       # Number of snoops hitting in the snoop filter with a single holder of the requested data. (Count)
system.membus.snoop_filter.hitMultiSnoops            0                       # Number of snoops hitting in the snoop filter with multiple (>1) holders of the requested data. (Count)
system.tol2bus.transDist::ReadResp                529                       # Transaction distribution (Count)
system.tol2bus.transDist::WritebackDirty          185                       # Transaction distribution (Count)
system.tol2bus.transDist::WritebackClean          216                       # Transaction distribution (Count)
system.tol2bus.transDist::CleanEvict              851                       # Transaction distribution (Count)
system.tol2bus.transDist::ReadExReq                22                       # Transaction distribution (Count)
system.tol2bus.transDist::ReadExResp               22                       # Transaction distribution (Count)
system.tol2bus.transDist::ReadCleanReq            217                       # Transaction distribution (Count)
system.tol2bus.transDist::ReadSharedReq           311                       # Transaction distribution (Count)
system.tol2bus.transDist::InvalidateReq             1                       # Transaction distribution (Count)
system.tol2bus.transDist::InvalidateResp            1                       # Transaction distribution (Count)
system.tol2bus.pktCount_system.cpu.icache.mem_side_port::system.l2.cpu_side_port          649                       # Packet count per connected requestor and responder (Count)
system.tol2bus.pktCount_system.cpu.dcache.mem_side_port::system.l2.cpu_side_port         1006                       # Packet count per connected requestor and responder (Count)
system.tol2bus.pktCount::total                   1655                       # Packet count per connected requestor and responder (Count)
system.tol2bus.pktSize_system.cpu.icache.mem_side_port::system.l2.cpu_side_port        27648                       # Cumulative packet size per connected requestor and responder (Byte)
system.tol2bus.pktSize_system.cpu.dcache.mem_side_port::system.l2.cpu_side_port        25472                       # Cumulative packet size per connected requestor and responder (Byte)
system.tol2bus.pktSize::total                   53120                       # Cumulative packet size per connected requestor and responder (Byte)
system.tol2bus.snoops                             700                       # Total snoops (Count)
system.tol2bus.snoopTraffic                      7808                       # Total snoop traffic (Byte)
system.tol2bus.snoopFanout::samples              1251                       # Request fanout histogram (Count)
system.tol2bus.snoopFanout::mean                    0                       # Request fanout histogram (Count)
system.tol2bus.snoopFanout::stdev                   0                       # Request fanout histogram (Count)
system.tol2bus.snoopFanout::underflows              0      0.00%      0.00% # Request fanout histogram (Count)
system.tol2bus.snoopFanout::0                    1251    100.00%    100.00% # Request fanout histogram (Count)
system.tol2bus.snoopFanout::1                       0      0.00%    100.00% # Request fanout histogram (Count)
system.tol2bus.snoopFanout::2                       0      0.00%    100.00% # Request fanout histogram (Count)
system.tol2bus.snoopFanout::overflows               0      0.00%    100.00% # Request fanout histogram (Count)
system.tol2bus.snoopFanout::min_value               0                       # Request fanout histogram (Count)
system.tol2bus.snoopFanout::max_value               0                       # Request fanout histogram (Count)
system.tol2bus.snoopFanout::total                1251                       # Request fanout histogram (Count)
system.tol2bus.power_state.pwrStateResidencyTicks::UNDEFINED     26783000                       # Cumulative time (in ticks) in various power states (Tick)
system.tol2bus.reqLayer0.occupancy             830500                       # Layer occupancy (ticks) (Tick)
system.tol2bus.reqLayer0.utilization              0.0                       # Layer utilization (Ratio)
system.tol2bus.respLayer0.occupancy            324000                       # Layer occupancy (ticks) (Tick)
system.tol2bus.respLayer0.utilization             0.0                       # Layer utilization (Ratio)
system.tol2bus.respLayer1.occupancy            503000                       # Layer occupancy (ticks) (Tick)
system.tol2bus.respLayer1.utilization             0.0                       # Layer utilization (Ratio)
system.tol2bus.snoop_filter.totRequests          1103                       # Total number of requests made to the snoop filter. (Count)
system.tol2bus.snoop_filter.hitSingleRequests          552                       # Number of requests hitting in the snoop filter with a single holder of the requested data. (Count)
system.tol2bus.snoop_filter.hitMultiRequests            0                       # Number of requests hitting in the snoop filter with multiple (>1) holders of the requested data. (Count)
system.tol2bus.snoop_filter.totSnoops               0                       # Total number of snoops made to the snoop filter. (Count)
system.tol2bus.snoop_filter.hitSingleSnoops            0                       # Number of snoops hitting in the snoop filter with a single holder of the requested data. (Count)
system.tol2bus.snoop_filter.hitMultiSnoops            0                       # Number of snoops hitting in the snoop filter with multiple (>1) holders of the requested data. (Count)
system.voltage_domain.voltage                       1                       # Voltage in Volts (Volt)
system.workload.inst.arm                            0                       # number of arm instructions executed (Count)
system.workload.inst.quiesce                        0                       # number of quiesce instructions executed (Count)

---------- End Simulation Statistics   ----------
