
---------- Begin Simulation Statistics ----------
simSeconds                                   0.025989                       # Number of seconds simulated (Second)
simTicks                                  25988820000                       # Number of ticks simulated (Tick)
finalTick                                 25988820000                       # Number of ticks from beginning of simulation (restored from checkpoints and never reset) (Tick)
simFreq                                  1000000000000                       # The number of ticks per simulated second ((Tick/Second))
hostSeconds                                    207.47                       # Real time elapsed on the host (Second)
hostTickRate                                125268031                       # The number of ticks simulated per host second (ticks/s) ((Tick/Second))
hostMemory                                     681144                       # Number of bytes of host memory used (Byte)
simInsts                                     45559083                       # Number of instructions simulated (Count)
simOps                                       47710895                       # Number of ops (including micro ops) simulated (Count)
hostInstRate                                   219598                       # Simulator instruction rate (inst/s) ((Count/Second))
hostOpRate                                     229970                       # Simulator op (including micro ops) rate (op/s) ((Count/Second))
system.clk_domain.clock                          1000                       # Clock period in ticks (Tick)
system.cpu.numCycles                         51977641                       # Number of cpu cycles simulated (Cycle)
system.cpu.numWorkItemsStarted                      0                       # Number of work items this cpu started (Count)
system.cpu.numWorkItemsCompleted                    0                       # Number of work items this cpu completed (Count)
system.cpu.instsAdded                        48393255                       # Number of instructions added to the IQ (excludes non-spec) (Count)
system.cpu.nonSpecInstsAdded                      410                       # Number of non-speculative instructions added to the IQ (Count)
system.cpu.instsIssued                       54858107                       # Number of instructions issued (Count)
system.cpu.squashedInstsIssued                   2845                       # Number of squashed instructions issued (Count)
system.cpu.squashedInstsExamined               682769                       # Number of squashed instructions iterated over during squash; mainly for profiling (Count)
system.cpu.squashedOperandsExamined            663361                       # Number of squashed operands that are examined and possibly removed from graph (Count)
system.cpu.squashedNonSpecRemoved                 137                       # Number of squashed non-spec instructions that were removed (Count)
system.cpu.numIssuedDist::samples            51839086                       # Number of insts issued each cycle (Count)
system.cpu.numIssuedDist::mean               1.058238                       # Number of insts issued each cycle (Count)
system.cpu.numIssuedDist::stdev              2.108945                       # Number of insts issued each cycle (Count)
system.cpu.numIssuedDist::underflows                0      0.00%      0.00% # Number of insts issued each cycle (Count)
system.cpu.numIssuedDist::0                  38026696     73.36%     73.36% # Number of insts issued each cycle (Count)
system.cpu.numIssuedDist::1                   3284664      6.34%     79.69% # Number of insts issued each cycle (Count)
system.cpu.numIssuedDist::2                   1446965      2.79%     82.48% # Number of insts issued each cycle (Count)
system.cpu.numIssuedDist::3                   1042228      2.01%     84.49% # Number of insts issued each cycle (Count)
system.cpu.numIssuedDist::4                   1769265      3.41%     87.91% # Number of insts issued each cycle (Count)
system.cpu.numIssuedDist::5                   1868878      3.61%     91.51% # Number of insts issued each cycle (Count)
system.cpu.numIssuedDist::6                   2291698      4.42%     95.93% # Number of insts issued each cycle (Count)
system.cpu.numIssuedDist::7                   1488345      2.87%     98.80% # Number of insts issued each cycle (Count)
system.cpu.numIssuedDist::8                    620347      1.20%    100.00% # Number of insts issued each cycle (Count)
system.cpu.numIssuedDist::overflows                 0      0.00%    100.00% # Number of insts issued each cycle (Count)
system.cpu.numIssuedDist::min_value                 0                       # Number of insts issued each cycle (Count)
system.cpu.numIssuedDist::max_value                 8                       # Number of insts issued each cycle (Count)
system.cpu.numIssuedDist::total              51839086                       # Number of insts issued each cycle (Count)
system.cpu.statFuBusy::No_OpClass                   0      0.00%      0.00% # attempts to use FU when none available (Count)
system.cpu.statFuBusy::IntAlu                   20033      0.21%      0.21% # attempts to use FU when none available (Count)
system.cpu.statFuBusy::IntMult                      0      0.00%      0.21% # attempts to use FU when none available (Count)
system.cpu.statFuBusy::IntDiv                    1192      0.01%      0.22% # attempts to use FU when none available (Count)
system.cpu.statFuBusy::FloatAdd                     0      0.00%      0.22% # attempts to use FU when none available (Count)
system.cpu.statFuBusy::FloatCmp                     0      0.00%      0.22% # attempts to use FU when none available (Count)
system.cpu.statFuBusy::FloatCvt                     0      0.00%      0.22% # attempts to use FU when none available (Count)
system.cpu.statFuBusy::FloatMult                    0      0.00%      0.22% # attempts to use FU when none available (Count)
system.cpu.statFuBusy::FloatMultAcc                 0      0.00%      0.22% # attempts to use FU when none available (Count)
system.cpu.statFuBusy::FloatDiv                     0      0.00%      0.22% # attempts to use FU when none available (Count)
system.cpu.statFuBusy::FloatMisc                    0      0.00%      0.22% # attempts to use FU when none available (Count)
system.cpu.statFuBusy::FloatSqrt                    0      0.00%      0.22% # attempts to use FU when none available (Count)
system.cpu.statFuBusy::SimdAdd                2181863     22.99%     23.21% # attempts to use FU when none available (Count)
system.cpu.statFuBusy::SimdAddAcc                   0      0.00%     23.21% # attempts to use FU when none available (Count)
system.cpu.statFuBusy::SimdAlu                     20      0.00%     23.21% # attempts to use FU when none available (Count)
system.cpu.statFuBusy::SimdCmp                     17      0.00%     23.21% # attempts to use FU when none available (Count)
system.cpu.statFuBusy::SimdCvt                      0      0.00%     23.21% # attempts to use FU when none available (Count)
system.cpu.statFuBusy::SimdMisc               1193559     12.57%     35.78% # attempts to use FU when none available (Count)
system.cpu.statFuBusy::SimdMult               4785467     50.42%     86.20% # attempts to use FU when none available (Count)
system.cpu.statFuBusy::SimdMultAcc                  0      0.00%     86.20% # attempts to use FU when none available (Count)
system.cpu.statFuBusy::SimdShift                    0      0.00%     86.20% # attempts to use FU when none available (Count)
system.cpu.statFuBusy::SimdShiftAcc                 0      0.00%     86.20% # attempts to use FU when none available (Count)
system.cpu.statFuBusy::SimdDiv                      0      0.00%     86.20% # attempts to use FU when none available (Count)
system.cpu.statFuBusy::SimdSqrt                     0      0.00%     86.20% # attempts to use FU when none available (Count)
system.cpu.statFuBusy::SimdFloatAdd                 0      0.00%     86.20% # attempts to use FU when none available (Count)
system.cpu.statFuBusy::SimdFloatAlu                 0      0.00%     86.20% # attempts to use FU when none available (Count)
system.cpu.statFuBusy::SimdFloatCmp                 0      0.00%     86.20% # attempts to use FU when none available (Count)
system.cpu.statFuBusy::SimdFloatCvt                 0      0.00%     86.20% # attempts to use FU when none available (Count)
system.cpu.statFuBusy::SimdFloatDiv                 0      0.00%     86.20% # attempts to use FU when none available (Count)
system.cpu.statFuBusy::SimdFloatMisc                0      0.00%     86.20% # attempts to use FU when none available (Count)
system.cpu.statFuBusy::SimdFloatMult                0      0.00%     86.20% # attempts to use FU when none available (Count)
system.cpu.statFuBusy::SimdFloatMultAcc             0      0.00%     86.20% # attempts to use FU when none available (Count)
system.cpu.statFuBusy::SimdFloatSqrt                0      0.00%     86.20% # attempts to use FU when none available (Count)
system.cpu.statFuBusy::SimdReduceAdd                0      0.00%     86.20% # attempts to use FU when none available (Count)
system.cpu.statFuBusy::SimdReduceAlu                0      0.00%     86.20% # attempts to use FU when none available (Count)
system.cpu.statFuBusy::SimdReduceCmp                0      0.00%     86.20% # attempts to use FU when none available (Count)
system.cpu.statFuBusy::SimdFloatReduceAdd            0      0.00%     86.20% # attempts to use FU when none available (Count)
system.cpu.statFuBusy::SimdFloatReduceCmp            0      0.00%     86.20% # attempts to use FU when none available (Count)
system.cpu.statFuBusy::SimdAes                      0      0.00%     86.20% # attempts to use FU when none available (Count)
system.cpu.statFuBusy::SimdAesMix                   0      0.00%     86.20% # attempts to use FU when none available (Count)
system.cpu.statFuBusy::SimdSha1Hash                 0      0.00%     86.20% # attempts to use FU when none available (Count)
system.cpu.statFuBusy::SimdSha1Hash2                0      0.00%     86.20% # attempts to use FU when none available (Count)
system.cpu.statFuBusy::SimdSha256Hash               0      0.00%     86.20% # attempts to use FU when none available (Count)
system.cpu.statFuBusy::SimdSha256Hash2              0      0.00%     86.20% # attempts to use FU when none available (Count)
system.cpu.statFuBusy::SimdShaSigma2                0      0.00%     86.20% # attempts to use FU when none available (Count)
system.cpu.statFuBusy::SimdShaSigma3                0      0.00%     86.20% # attempts to use FU when none available (Count)
system.cpu.statFuBusy::SimdPredAlu                  0      0.00%     86.20% # attempts to use FU when none available (Count)
system.cpu.statFuBusy::MemRead                1289262     13.58%     99.78% # attempts to use FU when none available (Count)
system.cpu.statFuBusy::MemWrite                 20525      0.22%    100.00% # attempts to use FU when none available (Count)
system.cpu.statFuBusy::FloatMemRead                 0      0.00%    100.00% # attempts to use FU when none available (Count)
system.cpu.statFuBusy::FloatMemWrite                0      0.00%    100.00% # attempts to use FU when none available (Count)
system.cpu.statFuBusy::IprAccess                    0      0.00%    100.00% # attempts to use FU when none available (Count)
system.cpu.statFuBusy::InstPrefetch                 0      0.00%    100.00% # attempts to use FU when none available (Count)
system.cpu.statIssuedInstType_0::No_OpClass       402912      0.73%      0.73% # Number of instructions issued per FU type, per thread (Count)
system.cpu.statIssuedInstType_0::IntAlu      14675205     26.75%     27.49% # Number of instructions issued per FU type, per thread (Count)
system.cpu.statIssuedInstType_0::IntMult         7632      0.01%     27.50% # Number of instructions issued per FU type, per thread (Count)
system.cpu.statIssuedInstType_0::IntDiv          2712      0.00%     27.50% # Number of instructions issued per FU type, per thread (Count)
system.cpu.statIssuedInstType_0::FloatAdd            0      0.00%     27.50% # Number of instructions issued per FU type, per thread (Count)
system.cpu.statIssuedInstType_0::FloatCmp            0      0.00%     27.50% # Number of instructions issued per FU type, per thread (Count)
system.cpu.statIssuedInstType_0::FloatCvt            0      0.00%     27.50% # Number of instructions issued per FU type, per thread (Count)
system.cpu.statIssuedInstType_0::FloatMult            0      0.00%     27.50% # Number of instructions issued per FU type, per thread (Count)
system.cpu.statIssuedInstType_0::FloatMultAcc            0      0.00%     27.50% # Number of instructions issued per FU type, per thread (Count)
system.cpu.statIssuedInstType_0::FloatDiv            0      0.00%     27.50% # Number of instructions issued per FU type, per thread (Count)
system.cpu.statIssuedInstType_0::FloatMisc            2      0.00%     27.50% # Number of instructions issued per FU type, per thread (Count)
system.cpu.statIssuedInstType_0::FloatSqrt            0      0.00%     27.50% # Number of instructions issued per FU type, per thread (Count)
system.cpu.statIssuedInstType_0::SimdAdd      7226150     13.17%     40.68% # Number of instructions issued per FU type, per thread (Count)
system.cpu.statIssuedInstType_0::SimdAddAcc            0      0.00%     40.68% # Number of instructions issued per FU type, per thread (Count)
system.cpu.statIssuedInstType_0::SimdAlu          212      0.00%     40.68% # Number of instructions issued per FU type, per thread (Count)
system.cpu.statIssuedInstType_0::SimdCmp          125      0.00%     40.68% # Number of instructions issued per FU type, per thread (Count)
system.cpu.statIssuedInstType_0::SimdCvt            0      0.00%     40.68% # Number of instructions issued per FU type, per thread (Count)
system.cpu.statIssuedInstType_0::SimdMisc      7226197     13.17%     53.85% # Number of instructions issued per FU type, per thread (Count)
system.cpu.statIssuedInstType_0::SimdMult      7226044     13.17%     67.02% # Number of instructions issued per FU type, per thread (Count)
system.cpu.statIssuedInstType_0::SimdMultAcc            0      0.00%     67.02% # Number of instructions issued per FU type, per thread (Count)
system.cpu.statIssuedInstType_0::SimdShift            0      0.00%     67.02% # Number of instructions issued per FU type, per thread (Count)
system.cpu.statIssuedInstType_0::SimdShiftAcc            0      0.00%     67.02% # Number of instructions issued per FU type, per thread (Count)
system.cpu.statIssuedInstType_0::SimdDiv            0      0.00%     67.02% # Number of instructions issued per FU type, per thread (Count)
system.cpu.statIssuedInstType_0::SimdSqrt            0      0.00%     67.02% # Number of instructions issued per FU type, per thread (Count)
system.cpu.statIssuedInstType_0::SimdFloatAdd            0      0.00%     67.02% # Number of instructions issued per FU type, per thread (Count)
system.cpu.statIssuedInstType_0::SimdFloatAlu            0      0.00%     67.02% # Number of instructions issued per FU type, per thread (Count)
system.cpu.statIssuedInstType_0::SimdFloatCmp            0      0.00%     67.02% # Number of instructions issued per FU type, per thread (Count)
system.cpu.statIssuedInstType_0::SimdFloatCvt            0      0.00%     67.02% # Number of instructions issued per FU type, per thread (Count)
system.cpu.statIssuedInstType_0::SimdFloatDiv            0      0.00%     67.02% # Number of instructions issued per FU type, per thread (Count)
system.cpu.statIssuedInstType_0::SimdFloatMisc            0      0.00%     67.02% # Number of instructions issued per FU type, per thread (Count)
system.cpu.statIssuedInstType_0::SimdFloatMult            0      0.00%     67.02% # Number of instructions issued per FU type, per thread (Count)
system.cpu.statIssuedInstType_0::SimdFloatMultAcc            0      0.00%     67.02% # Number of instructions issued per FU type, per thread (Count)
system.cpu.statIssuedInstType_0::SimdFloatSqrt            0      0.00%     67.02% # Number of instructions issued per FU type, per thread (Count)
system.cpu.statIssuedInstType_0::SimdReduceAdd            0      0.00%     67.02% # Number of instructions issued per FU type, per thread (Count)
system.cpu.statIssuedInstType_0::SimdReduceAlu            0      0.00%     67.02% # Number of instructions issued per FU type, per thread (Count)
system.cpu.statIssuedInstType_0::SimdReduceCmp            0      0.00%     67.02% # Number of instructions issued per FU type, per thread (Count)
system.cpu.statIssuedInstType_0::SimdFloatReduceAdd            0      0.00%     67.02% # Number of instructions issued per FU type, per thread (Count)
system.cpu.statIssuedInstType_0::SimdFloatReduceCmp            0      0.00%     67.02% # Number of instructions issued per FU type, per thread (Count)
system.cpu.statIssuedInstType_0::SimdAes            0      0.00%     67.02% # Number of instructions issued per FU type, per thread (Count)
system.cpu.statIssuedInstType_0::SimdAesMix            0      0.00%     67.02% # Number of instructions issued per FU type, per thread (Count)
system.cpu.statIssuedInstType_0::SimdSha1Hash            0      0.00%     67.02% # Number of instructions issued per FU type, per thread (Count)
system.cpu.statIssuedInstType_0::SimdSha1Hash2            0      0.00%     67.02% # Number of instructions issued per FU type, per thread (Count)
system.cpu.statIssuedInstType_0::SimdSha256Hash            0      0.00%     67.02% # Number of instructions issued per FU type, per thread (Count)
system.cpu.statIssuedInstType_0::SimdSha256Hash2            0      0.00%     67.02% # Number of instructions issued per FU type, per thread (Count)
system.cpu.statIssuedInstType_0::SimdShaSigma2            0      0.00%     67.02% # Number of instructions issued per FU type, per thread (Count)
system.cpu.statIssuedInstType_0::SimdShaSigma3            0      0.00%     67.02% # Number of instructions issued per FU type, per thread (Count)
system.cpu.statIssuedInstType_0::SimdPredAlu            0      0.00%     67.02% # Number of instructions issued per FU type, per thread (Count)
system.cpu.statIssuedInstType_0::MemRead     14165384     25.82%     92.84% # Number of instructions issued per FU type, per thread (Count)
system.cpu.statIssuedInstType_0::MemWrite      3925532      7.16%    100.00% # Number of instructions issued per FU type, per thread (Count)
system.cpu.statIssuedInstType_0::FloatMemRead            0      0.00%    100.00% # Number of instructions issued per FU type, per thread (Count)
system.cpu.statIssuedInstType_0::FloatMemWrite            0      0.00%    100.00% # Number of instructions issued per FU type, per thread (Count)
system.cpu.statIssuedInstType_0::IprAccess            0      0.00%    100.00% # Number of instructions issued per FU type, per thread (Count)
system.cpu.statIssuedInstType_0::InstPrefetch            0      0.00%    100.00% # Number of instructions issued per FU type, per thread (Count)
system.cpu.statIssuedInstType_0::total       54858107                       # Number of instructions issued per FU type, per thread (Count)
system.cpu.issueRate                         1.055417                       # Inst issue rate ((Count/Cycle))
system.cpu.fuBusy                             9491938                       # FU busy when requested (Count)
system.cpu.fuBusyRate                        0.173027                       # FU busy rate (busy events/executed inst) ((Count/Count))
system.cpu.intInstQueueReads                 98700880                       # Number of integer instruction queue reads (Count)
system.cpu.intInstQueueWrites                23489577                       # Number of integer instruction queue writes (Count)
system.cpu.intInstQueueWakeupAccesses        22577962                       # Number of integer instruction queue wakeup accesses (Count)
system.cpu.fpInstQueueReads                         0                       # Number of floating instruction queue reads (Count)
system.cpu.fpInstQueueWrites                        0                       # Number of floating instruction queue writes (Count)
system.cpu.fpInstQueueWakeupAccesses                0                       # Number of floating instruction queue wakeup accesses (Count)
system.cpu.vecInstQueueReads                 72349203                       # Number of vector instruction queue reads (Count)
system.cpu.vecInstQueueWrites                25587164                       # Number of vector instruction queue writes (Count)
system.cpu.vecInstQueueWakeupAccesses        25462738                       # Number of vector instruction queue wakeup accesses (Count)
system.cpu.intAluAccesses                    23467485                       # Number of integer alu accesses (Count)
system.cpu.fpAluAccesses                            0                       # Number of floating point alu accesses (Count)
system.cpu.vecAluAccesses                    40479648                       # Number of vector alu accesses (Count)
system.cpu.numInsts                          54829681                       # Number of executed instructions (Count)
system.cpu.numLoadInsts                      14153286                       # Number of load instructions executed (Count)
system.cpu.numSquashedInsts                     28426                       # Number of squashed instructions skipped in execute (Count)
system.cpu.numSwp                                   0                       # Number of swp insts executed (Count)
system.cpu.numNop                                 435                       # Number of nop insts executed (Count)
system.cpu.numRefs                           18077018                       # Number of memory reference insts executed (Count)
system.cpu.numBranches                         595769                       # Number of branches executed (Count)
system.cpu.numStoreInsts                      3923732                       # Number of stores executed (Count)
system.cpu.numRate                           1.054871                       # Inst execution rate ((Count/Cycle))
system.cpu.timesIdled                            1458                       # Number of times that the entire CPU went into an idle state and unscheduled itself (Count)
system.cpu.idleCycles                          138555                       # Total number of cycles that the CPU has spent unscheduled due to idling (Cycle)
system.cpu.committedInsts                    45559083                       # Number of Instructions Simulated (Count)
system.cpu.committedOps                      47710895                       # Number of Ops (including micro ops) Simulated (Count)
system.cpu.cpi                               1.140884                       # CPI: Cycles Per Instruction ((Cycle/Count))
system.cpu.totalCpi                          1.140884                       # CPI: Total CPI of All Threads ((Cycle/Count))
system.cpu.ipc                               0.876513                       # IPC: Instructions Per Cycle ((Count/Cycle))
system.cpu.totalIpc                          0.876513                       # IPC: Total IPC of All Threads ((Count/Cycle))
system.cpu.intRegfileReads                   52342919                       # Number of integer regfile reads (Count)
system.cpu.intRegfileWrites                  25121057                       # Number of integer regfile writes (Count)
system.cpu.vecRegfileReads                   49553922                       # number of vector regfile reads (Count)
system.cpu.ccRegfileReads                     1026237                       # number of cc regfile reads (Count)
system.cpu.ccRegfileWrites                    1021452                       # number of cc regfile writes (Count)
system.cpu.miscRegfileReads                  62553219                       # number of misc regfile reads (Count)
system.cpu.miscRegfileWrites                      213                       # number of misc regfile writes (Count)
system.cpu.MemDepUnit__0.insertedLoads        7442937                       # Number of loads inserted to the mem dependence unit. (Count)
system.cpu.MemDepUnit__0.insertedStores       3935961                       # Number of stores inserted to the mem dependence unit. (Count)
system.cpu.MemDepUnit__0.conflictingLoads      1003179                       # Number of conflicting loads. (Count)
system.cpu.MemDepUnit__0.conflictingStores       142341                       # Number of conflicting stores. (Count)
system.cpu.MemDepUnit__1.insertedLoads              0                       # Number of loads inserted to the mem dependence unit. (Count)
system.cpu.MemDepUnit__1.insertedStores             0                       # Number of stores inserted to the mem dependence unit. (Count)
system.cpu.MemDepUnit__1.conflictingLoads            0                       # Number of conflicting loads. (Count)
system.cpu.MemDepUnit__1.conflictingStores            0                       # Number of conflicting stores. (Count)
system.cpu.MemDepUnit__2.insertedLoads              0                       # Number of loads inserted to the mem dependence unit. (Count)
system.cpu.MemDepUnit__2.insertedStores             0                       # Number of stores inserted to the mem dependence unit. (Count)
system.cpu.MemDepUnit__2.conflictingLoads            0                       # Number of conflicting loads. (Count)
system.cpu.MemDepUnit__2.conflictingStores            0                       # Number of conflicting stores. (Count)
system.cpu.MemDepUnit__3.insertedLoads              0                       # Number of loads inserted to the mem dependence unit. (Count)
system.cpu.MemDepUnit__3.insertedStores             0                       # Number of stores inserted to the mem dependence unit. (Count)
system.cpu.MemDepUnit__3.conflictingLoads            0                       # Number of conflicting loads. (Count)
system.cpu.MemDepUnit__3.conflictingStores            0                       # Number of conflicting stores. (Count)
system.cpu.branchPred.lookups                  718273                       # Number of BP lookups (Count)
system.cpu.branchPred.condPredicted            643728                       # Number of conditional branches predicted (Count)
system.cpu.branchPred.condIncorrect             18765                       # Number of conditional branches incorrect (Count)
system.cpu.branchPred.BTBLookups               473806                       # Number of BTB lookups (Count)
system.cpu.branchPred.BTBUpdates                 7597                       # Number of BTB updates (Count)
system.cpu.branchPred.BTBHits                  470964                       # Number of BTB hits (Count)
system.cpu.branchPred.BTBHitRatio            0.994002                       # BTB Hit Ratio (Ratio)
system.cpu.branchPred.RASUsed                   17582                       # Number of times the RAS was used to get a target. (Count)
system.cpu.branchPred.RASIncorrect                 40                       # Number of incorrect RAS predictions. (Count)
system.cpu.branchPred.indirectLookups            6668                       # Number of indirect predictor lookups. (Count)
system.cpu.branchPred.indirectHits               1335                       # Number of indirect target hits. (Count)
system.cpu.branchPred.indirectMisses             5333                       # Number of indirect misses. (Count)
system.cpu.branchPred.indirectMispredicted          669                       # Number of mispredicted indirect branches. (Count)
system.cpu.commit.commitSquashedInsts          673105                       # The number of squashed insts skipped by commit (Count)
system.cpu.commit.commitNonSpecStalls             273                       # The number of times commit has been forced to stall to communicate backwards (Count)
system.cpu.commit.branchMispredicts             18683                       # The number of times a branch was mispredicted (Count)
system.cpu.commit.numCommittedDist::samples     51734497                       # Number of insts commited each cycle (Count)
system.cpu.commit.numCommittedDist::mean     0.922228                       # Number of insts commited each cycle (Count)
system.cpu.commit.numCommittedDist::stdev     2.311606                       # Number of insts commited each cycle (Count)
system.cpu.commit.numCommittedDist::underflows            0      0.00%      0.00% # Number of insts commited each cycle (Count)
system.cpu.commit.numCommittedDist::0        41974041     81.13%     81.13% # Number of insts commited each cycle (Count)
system.cpu.commit.numCommittedDist::1         2153099      4.16%     85.30% # Number of insts commited each cycle (Count)
system.cpu.commit.numCommittedDist::2         1282091      2.48%     87.77% # Number of insts commited each cycle (Count)
system.cpu.commit.numCommittedDist::3          240746      0.47%     88.24% # Number of insts commited each cycle (Count)
system.cpu.commit.numCommittedDist::4         1250596      2.42%     90.66% # Number of insts commited each cycle (Count)
system.cpu.commit.numCommittedDist::5          421510      0.81%     91.47% # Number of insts commited each cycle (Count)
system.cpu.commit.numCommittedDist::6           60585      0.12%     91.59% # Number of insts commited each cycle (Count)
system.cpu.commit.numCommittedDist::7           16581      0.03%     91.62% # Number of insts commited each cycle (Count)
system.cpu.commit.numCommittedDist::8         4335248      8.38%    100.00% # Number of insts commited each cycle (Count)
system.cpu.commit.numCommittedDist::overflows            0      0.00%    100.00% # Number of insts commited each cycle (Count)
system.cpu.commit.numCommittedDist::min_value            0                       # Number of insts commited each cycle (Count)
system.cpu.commit.numCommittedDist::max_value            8                       # Number of insts commited each cycle (Count)
system.cpu.commit.numCommittedDist::total     51734497                       # Number of insts commited each cycle (Count)
system.cpu.commit.instsCommitted             45559202                       # Number of instructions committed (Count)
system.cpu.commit.opsCommitted               47711014                       # Number of ops (including micro ops) committed (Count)
system.cpu.commit.memRefs                    11194079                       # Number of memory references committed (Count)
system.cpu.commit.loads                       7305885                       # Number of loads committed (Count)
system.cpu.commit.amos                            106                       # Number of atomic instructions committed (Count)
system.cpu.commit.membars                         114                       # Number of memory barriers committed (Count)
system.cpu.commit.branches                     546714                       # Number of branches committed (Count)
system.cpu.commit.vectorInstructions         25452442                       # Number of committed Vector instructions. (Count)
system.cpu.commit.floating                          0                       # Number of committed floating point instructions. (Count)
system.cpu.commit.integer                    32527223                       # Number of committed integer instructions. (Count)
system.cpu.commit.functionCalls                 11001                       # Number of function calls committed. (Count)
system.cpu.commit.committedInstType_0::No_OpClass       402114      0.84%      0.84% # Class of committed instruction (Count)
system.cpu.commit.committedInstType_0::IntAlu     14428729     30.24%     31.08% # Class of committed instruction (Count)
system.cpu.commit.committedInstType_0::IntMult         7063      0.01%     31.10% # Class of committed instruction (Count)
system.cpu.commit.committedInstType_0::IntDiv         2565      0.01%     31.10% # Class of committed instruction (Count)
system.cpu.commit.committedInstType_0::FloatAdd            0      0.00%     31.10% # Class of committed instruction (Count)
system.cpu.commit.committedInstType_0::FloatCmp            0      0.00%     31.10% # Class of committed instruction (Count)
system.cpu.commit.committedInstType_0::FloatCvt            0      0.00%     31.10% # Class of committed instruction (Count)
system.cpu.commit.committedInstType_0::FloatMult            0      0.00%     31.10% # Class of committed instruction (Count)
system.cpu.commit.committedInstType_0::FloatMultAcc            0      0.00%     31.10% # Class of committed instruction (Count)
system.cpu.commit.committedInstType_0::FloatDiv            0      0.00%     31.10% # Class of committed instruction (Count)
system.cpu.commit.committedInstType_0::FloatMisc            2      0.00%     31.10% # Class of committed instruction (Count)
system.cpu.commit.committedInstType_0::FloatSqrt            0      0.00%     31.10% # Class of committed instruction (Count)
system.cpu.commit.committedInstType_0::SimdAdd      7225423     15.14%     46.25% # Class of committed instruction (Count)
system.cpu.commit.committedInstType_0::SimdAddAcc            0      0.00%     46.25% # Class of committed instruction (Count)
system.cpu.commit.committedInstType_0::SimdAlu          153      0.00%     46.25% # Class of committed instruction (Count)
system.cpu.commit.committedInstType_0::SimdCmp           97      0.00%     46.25% # Class of committed instruction (Count)
system.cpu.commit.committedInstType_0::SimdCvt            0      0.00%     46.25% # Class of committed instruction (Count)
system.cpu.commit.committedInstType_0::SimdMisc      7225445     15.14%     61.39% # Class of committed instruction (Count)
system.cpu.commit.committedInstType_0::SimdMult      7225344     15.14%     76.54% # Class of committed instruction (Count)
system.cpu.commit.committedInstType_0::SimdMultAcc            0      0.00%     76.54% # Class of committed instruction (Count)
system.cpu.commit.committedInstType_0::SimdShift            0      0.00%     76.54% # Class of committed instruction (Count)
system.cpu.commit.committedInstType_0::SimdShiftAcc            0      0.00%     76.54% # Class of committed instruction (Count)
system.cpu.commit.committedInstType_0::SimdDiv            0      0.00%     76.54% # Class of committed instruction (Count)
system.cpu.commit.committedInstType_0::SimdSqrt            0      0.00%     76.54% # Class of committed instruction (Count)
system.cpu.commit.committedInstType_0::SimdFloatAdd            0      0.00%     76.54% # Class of committed instruction (Count)
system.cpu.commit.committedInstType_0::SimdFloatAlu            0      0.00%     76.54% # Class of committed instruction (Count)
system.cpu.commit.committedInstType_0::SimdFloatCmp            0      0.00%     76.54% # Class of committed instruction (Count)
system.cpu.commit.committedInstType_0::SimdFloatCvt            0      0.00%     76.54% # Class of committed instruction (Count)
system.cpu.commit.committedInstType_0::SimdFloatDiv            0      0.00%     76.54% # Class of committed instruction (Count)
system.cpu.commit.committedInstType_0::SimdFloatMisc            0      0.00%     76.54% # Class of committed instruction (Count)
system.cpu.commit.committedInstType_0::SimdFloatMult            0      0.00%     76.54% # Class of committed instruction (Count)
system.cpu.commit.committedInstType_0::SimdFloatMultAcc            0      0.00%     76.54% # Class of committed instruction (Count)
system.cpu.commit.committedInstType_0::SimdFloatSqrt            0      0.00%     76.54% # Class of committed instruction (Count)
system.cpu.commit.committedInstType_0::SimdReduceAdd            0      0.00%     76.54% # Class of committed instruction (Count)
system.cpu.commit.committedInstType_0::SimdReduceAlu            0      0.00%     76.54% # Class of committed instruction (Count)
system.cpu.commit.committedInstType_0::SimdReduceCmp            0      0.00%     76.54% # Class of committed instruction (Count)
system.cpu.commit.committedInstType_0::SimdFloatReduceAdd            0      0.00%     76.54% # Class of committed instruction (Count)
system.cpu.commit.committedInstType_0::SimdFloatReduceCmp            0      0.00%     76.54% # Class of committed instruction (Count)
system.cpu.commit.committedInstType_0::SimdAes            0      0.00%     76.54% # Class of committed instruction (Count)
system.cpu.commit.committedInstType_0::SimdAesMix            0      0.00%     76.54% # Class of committed instruction (Count)
system.cpu.commit.committedInstType_0::SimdSha1Hash            0      0.00%     76.54% # Class of committed instruction (Count)
system.cpu.commit.committedInstType_0::SimdSha1Hash2            0      0.00%     76.54% # Class of committed instruction (Count)
system.cpu.commit.committedInstType_0::SimdSha256Hash            0      0.00%     76.54% # Class of committed instruction (Count)
system.cpu.commit.committedInstType_0::SimdSha256Hash2            0      0.00%     76.54% # Class of committed instruction (Count)
system.cpu.commit.committedInstType_0::SimdShaSigma2            0      0.00%     76.54% # Class of committed instruction (Count)
system.cpu.commit.committedInstType_0::SimdShaSigma3            0      0.00%     76.54% # Class of committed instruction (Count)
system.cpu.commit.committedInstType_0::SimdPredAlu            0      0.00%     76.54% # Class of committed instruction (Count)
system.cpu.commit.committedInstType_0::MemRead      7305885     15.31%     91.85% # Class of committed instruction (Count)
system.cpu.commit.committedInstType_0::MemWrite      3888194      8.15%    100.00% # Class of committed instruction (Count)
system.cpu.commit.committedInstType_0::FloatMemRead            0      0.00%    100.00% # Class of committed instruction (Count)
system.cpu.commit.committedInstType_0::FloatMemWrite            0      0.00%    100.00% # Class of committed instruction (Count)
system.cpu.commit.committedInstType_0::IprAccess            0      0.00%    100.00% # Class of committed instruction (Count)
system.cpu.commit.committedInstType_0::InstPrefetch            0      0.00%    100.00% # Class of committed instruction (Count)
system.cpu.commit.committedInstType_0::total     47711014                       # Class of committed instruction (Count)
system.cpu.commit.commitEligibleSamples       4335248                       # number cycles where commit BW limit reached (Cycle)
system.cpu.dcache.demandHits::cpu.data        7912458                       # number of demand (read+write) hits (Count)
system.cpu.dcache.demandHits::total           7912458                       # number of demand (read+write) hits (Count)
system.cpu.dcache.overallHits::cpu.data       7912458                       # number of overall hits (Count)
system.cpu.dcache.overallHits::total          7912458                       # number of overall hits (Count)
system.cpu.dcache.demandMisses::cpu.data      2113289                       # number of demand (read+write) misses (Count)
system.cpu.dcache.demandMisses::total         2113289                       # number of demand (read+write) misses (Count)
system.cpu.dcache.overallMisses::cpu.data      2113289                       # number of overall misses (Count)
system.cpu.dcache.overallMisses::total        2113289                       # number of overall misses (Count)
system.cpu.dcache.demandMissLatency::cpu.data 120147563488                       # number of demand (read+write) miss ticks (Tick)
system.cpu.dcache.demandMissLatency::total 120147563488                       # number of demand (read+write) miss ticks (Tick)
system.cpu.dcache.overallMissLatency::cpu.data 120147563488                       # number of overall miss ticks (Tick)
system.cpu.dcache.overallMissLatency::total 120147563488                       # number of overall miss ticks (Tick)
system.cpu.dcache.demandAccesses::cpu.data     10025747                       # number of demand (read+write) accesses (Count)
system.cpu.dcache.demandAccesses::total      10025747                       # number of demand (read+write) accesses (Count)
system.cpu.dcache.overallAccesses::cpu.data     10025747                       # number of overall (read+write) accesses (Count)
system.cpu.dcache.overallAccesses::total     10025747                       # number of overall (read+write) accesses (Count)
system.cpu.dcache.demandMissRate::cpu.data     0.210786                       # miss rate for demand accesses (Ratio)
system.cpu.dcache.demandMissRate::total      0.210786                       # miss rate for demand accesses (Ratio)
system.cpu.dcache.overallMissRate::cpu.data     0.210786                       # miss rate for overall accesses (Ratio)
system.cpu.dcache.overallMissRate::total     0.210786                       # miss rate for overall accesses (Ratio)
system.cpu.dcache.demandAvgMissLatency::cpu.data 56853.352044                       # average overall miss latency in ticks ((Tick/Count))
system.cpu.dcache.demandAvgMissLatency::total 56853.352044                       # average overall miss latency in ticks ((Tick/Count))
system.cpu.dcache.overallAvgMissLatency::cpu.data 56853.352044                       # average overall miss latency ((Tick/Count))
system.cpu.dcache.overallAvgMissLatency::total 56853.352044                       # average overall miss latency ((Tick/Count))
system.cpu.dcache.blockedCycles::no_mshrs     32009335                       # number of cycles access was blocked (Cycle)
system.cpu.dcache.blockedCycles::no_targets          612                       # number of cycles access was blocked (Cycle)
system.cpu.dcache.blockedCauses::no_mshrs      1013232                       # number of times access was blocked (Count)
system.cpu.dcache.blockedCauses::no_targets           13                       # number of times access was blocked (Count)
system.cpu.dcache.avgBlocked::no_mshrs      31.591319                       # average number of cycles each access was blocked ((Cycle/Count))
system.cpu.dcache.avgBlocked::no_targets    47.076923                       # average number of cycles each access was blocked ((Cycle/Count))
system.cpu.dcache.writebacks::writebacks      1232605                       # number of writebacks (Count)
system.cpu.dcache.writebacks::total           1232605                       # number of writebacks (Count)
system.cpu.dcache.demandMshrHits::cpu.data       465841                       # number of demand (read+write) MSHR hits (Count)
system.cpu.dcache.demandMshrHits::total        465841                       # number of demand (read+write) MSHR hits (Count)
system.cpu.dcache.overallMshrHits::cpu.data       465841                       # number of overall MSHR hits (Count)
system.cpu.dcache.overallMshrHits::total       465841                       # number of overall MSHR hits (Count)
system.cpu.dcache.demandMshrMisses::cpu.data      1647448                       # number of demand (read+write) MSHR misses (Count)
system.cpu.dcache.demandMshrMisses::total      1647448                       # number of demand (read+write) MSHR misses (Count)
system.cpu.dcache.overallMshrMisses::cpu.data      1647448                       # number of overall MSHR misses (Count)
system.cpu.dcache.overallMshrMisses::total      1647448                       # number of overall MSHR misses (Count)
system.cpu.dcache.demandMshrMissLatency::cpu.data  81381788201                       # number of demand (read+write) MSHR miss ticks (Tick)
system.cpu.dcache.demandMshrMissLatency::total  81381788201                       # number of demand (read+write) MSHR miss ticks (Tick)
system.cpu.dcache.overallMshrMissLatency::cpu.data  81381788201                       # number of overall MSHR miss ticks (Tick)
system.cpu.dcache.overallMshrMissLatency::total  81381788201                       # number of overall MSHR miss ticks (Tick)
system.cpu.dcache.demandMshrMissRate::cpu.data     0.164322                       # mshr miss ratio for demand accesses (Ratio)
system.cpu.dcache.demandMshrMissRate::total     0.164322                       # mshr miss ratio for demand accesses (Ratio)
system.cpu.dcache.overallMshrMissRate::cpu.data     0.164322                       # mshr miss ratio for overall accesses (Ratio)
system.cpu.dcache.overallMshrMissRate::total     0.164322                       # mshr miss ratio for overall accesses (Ratio)
system.cpu.dcache.demandAvgMshrMissLatency::cpu.data 49398.699201                       # average overall mshr miss latency ((Tick/Count))
system.cpu.dcache.demandAvgMshrMissLatency::total 49398.699201                       # average overall mshr miss latency ((Tick/Count))
system.cpu.dcache.overallAvgMshrMissLatency::cpu.data 49398.699201                       # average overall mshr miss latency ((Tick/Count))
system.cpu.dcache.overallAvgMshrMissLatency::total 49398.699201                       # average overall mshr miss latency ((Tick/Count))
system.cpu.dcache.replacements                1646430                       # number of replacements (Count)
system.cpu.dcache.ReadReq.hits::cpu.data      4030367                       # number of ReadReq hits (Count)
system.cpu.dcache.ReadReq.hits::total         4030367                       # number of ReadReq hits (Count)
system.cpu.dcache.ReadReq.misses::cpu.data      2107278                       # number of ReadReq misses (Count)
system.cpu.dcache.ReadReq.misses::total       2107278                       # number of ReadReq misses (Count)
system.cpu.dcache.ReadReq.missLatency::cpu.data 119805679500                       # number of ReadReq miss ticks (Tick)
system.cpu.dcache.ReadReq.missLatency::total 119805679500                       # number of ReadReq miss ticks (Tick)
system.cpu.dcache.ReadReq.accesses::cpu.data      6137645                       # number of ReadReq accesses(hits+misses) (Count)
system.cpu.dcache.ReadReq.accesses::total      6137645                       # number of ReadReq accesses(hits+misses) (Count)
system.cpu.dcache.ReadReq.missRate::cpu.data     0.343337                       # miss rate for ReadReq accesses (Ratio)
system.cpu.dcache.ReadReq.missRate::total     0.343337                       # miss rate for ReadReq accesses (Ratio)
system.cpu.dcache.ReadReq.avgMissLatency::cpu.data 56853.286325                       # average ReadReq miss latency ((Tick/Count))
system.cpu.dcache.ReadReq.avgMissLatency::total 56853.286325                       # average ReadReq miss latency ((Tick/Count))
system.cpu.dcache.ReadReq.mshrHits::cpu.data       462122                       # number of ReadReq MSHR hits (Count)
system.cpu.dcache.ReadReq.mshrHits::total       462122                       # number of ReadReq MSHR hits (Count)
system.cpu.dcache.ReadReq.mshrMisses::cpu.data      1645156                       # number of ReadReq MSHR misses (Count)
system.cpu.dcache.ReadReq.mshrMisses::total      1645156                       # number of ReadReq MSHR misses (Count)
system.cpu.dcache.ReadReq.mshrMissLatency::cpu.data  81247750500                       # number of ReadReq MSHR miss ticks (Tick)
system.cpu.dcache.ReadReq.mshrMissLatency::total  81247750500                       # number of ReadReq MSHR miss ticks (Tick)
system.cpu.dcache.ReadReq.mshrMissRate::cpu.data     0.268044                       # mshr miss rate for ReadReq accesses (Ratio)
system.cpu.dcache.ReadReq.mshrMissRate::total     0.268044                       # mshr miss rate for ReadReq accesses (Ratio)
system.cpu.dcache.ReadReq.avgMshrMissLatency::cpu.data 49386.046369                       # average ReadReq mshr miss latency ((Tick/Count))
system.cpu.dcache.ReadReq.avgMshrMissLatency::total 49386.046369                       # average ReadReq mshr miss latency ((Tick/Count))
system.cpu.dcache.SwapReq.hits::cpu.data          100                       # number of SwapReq hits (Count)
system.cpu.dcache.SwapReq.hits::total             100                       # number of SwapReq hits (Count)
system.cpu.dcache.SwapReq.misses::cpu.data            6                       # number of SwapReq misses (Count)
system.cpu.dcache.SwapReq.misses::total             6                       # number of SwapReq misses (Count)
system.cpu.dcache.SwapReq.missLatency::cpu.data       598000                       # number of SwapReq miss ticks (Tick)
system.cpu.dcache.SwapReq.missLatency::total       598000                       # number of SwapReq miss ticks (Tick)
system.cpu.dcache.SwapReq.accesses::cpu.data          106                       # number of SwapReq accesses(hits+misses) (Count)
system.cpu.dcache.SwapReq.accesses::total          106                       # number of SwapReq accesses(hits+misses) (Count)
system.cpu.dcache.SwapReq.missRate::cpu.data     0.056604                       # miss rate for SwapReq accesses (Ratio)
system.cpu.dcache.SwapReq.missRate::total     0.056604                       # miss rate for SwapReq accesses (Ratio)
system.cpu.dcache.SwapReq.avgMissLatency::cpu.data 99666.666667                       # average SwapReq miss latency ((Tick/Count))
system.cpu.dcache.SwapReq.avgMissLatency::total 99666.666667                       # average SwapReq miss latency ((Tick/Count))
system.cpu.dcache.SwapReq.mshrMisses::cpu.data            6                       # number of SwapReq MSHR misses (Count)
system.cpu.dcache.SwapReq.mshrMisses::total            6                       # number of SwapReq MSHR misses (Count)
system.cpu.dcache.SwapReq.mshrMissLatency::cpu.data       592000                       # number of SwapReq MSHR miss ticks (Tick)
system.cpu.dcache.SwapReq.mshrMissLatency::total       592000                       # number of SwapReq MSHR miss ticks (Tick)
system.cpu.dcache.SwapReq.mshrMissRate::cpu.data     0.056604                       # mshr miss rate for SwapReq accesses (Ratio)
system.cpu.dcache.SwapReq.mshrMissRate::total     0.056604                       # mshr miss rate for SwapReq accesses (Ratio)
system.cpu.dcache.SwapReq.avgMshrMissLatency::cpu.data 98666.666667                       # average SwapReq mshr miss latency ((Tick/Count))
system.cpu.dcache.SwapReq.avgMshrMissLatency::total 98666.666667                       # average SwapReq mshr miss latency ((Tick/Count))
system.cpu.dcache.WriteLineReq.misses::cpu.data          131                       # number of WriteLineReq misses (Count)
system.cpu.dcache.WriteLineReq.misses::total          131                       # number of WriteLineReq misses (Count)
system.cpu.dcache.WriteLineReq.missLatency::cpu.data      4174908                       # number of WriteLineReq miss ticks (Tick)
system.cpu.dcache.WriteLineReq.missLatency::total      4174908                       # number of WriteLineReq miss ticks (Tick)
system.cpu.dcache.WriteLineReq.accesses::cpu.data          131                       # number of WriteLineReq accesses(hits+misses) (Count)
system.cpu.dcache.WriteLineReq.accesses::total          131                       # number of WriteLineReq accesses(hits+misses) (Count)
system.cpu.dcache.WriteLineReq.missRate::cpu.data            1                       # miss rate for WriteLineReq accesses (Ratio)
system.cpu.dcache.WriteLineReq.missRate::total            1                       # miss rate for WriteLineReq accesses (Ratio)
system.cpu.dcache.WriteLineReq.avgMissLatency::cpu.data 31869.526718                       # average WriteLineReq miss latency ((Tick/Count))
system.cpu.dcache.WriteLineReq.avgMissLatency::total 31869.526718                       # average WriteLineReq miss latency ((Tick/Count))
system.cpu.dcache.WriteLineReq.mshrMisses::cpu.data          131                       # number of WriteLineReq MSHR misses (Count)
system.cpu.dcache.WriteLineReq.mshrMisses::total          131                       # number of WriteLineReq MSHR misses (Count)
system.cpu.dcache.WriteLineReq.mshrMissLatency::cpu.data      4043908                       # number of WriteLineReq MSHR miss ticks (Tick)
system.cpu.dcache.WriteLineReq.mshrMissLatency::total      4043908                       # number of WriteLineReq MSHR miss ticks (Tick)
system.cpu.dcache.WriteLineReq.mshrMissRate::cpu.data            1                       # mshr miss rate for WriteLineReq accesses (Ratio)
system.cpu.dcache.WriteLineReq.mshrMissRate::total            1                       # mshr miss rate for WriteLineReq accesses (Ratio)
system.cpu.dcache.WriteLineReq.avgMshrMissLatency::cpu.data 30869.526718                       # average WriteLineReq mshr miss latency ((Tick/Count))
system.cpu.dcache.WriteLineReq.avgMshrMissLatency::total 30869.526718                       # average WriteLineReq mshr miss latency ((Tick/Count))
system.cpu.dcache.WriteReq.hits::cpu.data      3882091                       # number of WriteReq hits (Count)
system.cpu.dcache.WriteReq.hits::total        3882091                       # number of WriteReq hits (Count)
system.cpu.dcache.WriteReq.misses::cpu.data         5880                       # number of WriteReq misses (Count)
system.cpu.dcache.WriteReq.misses::total         5880                       # number of WriteReq misses (Count)
system.cpu.dcache.WriteReq.missLatency::cpu.data    337709080                       # number of WriteReq miss ticks (Tick)
system.cpu.dcache.WriteReq.missLatency::total    337709080                       # number of WriteReq miss ticks (Tick)
system.cpu.dcache.WriteReq.accesses::cpu.data      3887971                       # number of WriteReq accesses(hits+misses) (Count)
system.cpu.dcache.WriteReq.accesses::total      3887971                       # number of WriteReq accesses(hits+misses) (Count)
system.cpu.dcache.WriteReq.missRate::cpu.data     0.001512                       # miss rate for WriteReq accesses (Ratio)
system.cpu.dcache.WriteReq.missRate::total     0.001512                       # miss rate for WriteReq accesses (Ratio)
system.cpu.dcache.WriteReq.avgMissLatency::cpu.data 57433.517007                       # average WriteReq miss latency ((Tick/Count))
system.cpu.dcache.WriteReq.avgMissLatency::total 57433.517007                       # average WriteReq miss latency ((Tick/Count))
system.cpu.dcache.WriteReq.mshrHits::cpu.data         3719                       # number of WriteReq MSHR hits (Count)
system.cpu.dcache.WriteReq.mshrHits::total         3719                       # number of WriteReq MSHR hits (Count)
system.cpu.dcache.WriteReq.mshrMisses::cpu.data         2161                       # number of WriteReq MSHR misses (Count)
system.cpu.dcache.WriteReq.mshrMisses::total         2161                       # number of WriteReq MSHR misses (Count)
system.cpu.dcache.WriteReq.mshrMissLatency::cpu.data    129993793                       # number of WriteReq MSHR miss ticks (Tick)
system.cpu.dcache.WriteReq.mshrMissLatency::total    129993793                       # number of WriteReq MSHR miss ticks (Tick)
system.cpu.dcache.WriteReq.mshrMissRate::cpu.data     0.000556                       # mshr miss rate for WriteReq accesses (Ratio)
system.cpu.dcache.WriteReq.mshrMissRate::total     0.000556                       # mshr miss rate for WriteReq accesses (Ratio)
system.cpu.dcache.WriteReq.avgMshrMissLatency::cpu.data 60154.462286                       # average WriteReq mshr miss latency ((Tick/Count))
system.cpu.dcache.WriteReq.avgMshrMissLatency::total 60154.462286                       # average WriteReq mshr miss latency ((Tick/Count))
system.cpu.dcache.power_state.pwrStateResidencyTicks::UNDEFINED  25988820000                       # Cumulative time (in ticks) in various power states (Tick)
system.cpu.dcache.tags.tagsInUse          1022.557832                       # Average ticks per tags in use ((Tick/Count))
system.cpu.dcache.tags.totalRefs              9560012                       # Total number of references to valid blocks. (Count)
system.cpu.dcache.tags.sampledRefs            1647454                       # Sample count of references to valid blocks. (Count)
system.cpu.dcache.tags.avgRefs               5.802901                       # Average number of references to valid blocks. ((Count/Count))
system.cpu.dcache.tags.warmupTick              253500                       # The tick when the warmup percentage was hit. (Tick)
system.cpu.dcache.tags.occupancies::cpu.data  1022.557832                       # Average occupied blocks per tick, per requestor ((Count/Tick))
system.cpu.dcache.tags.avgOccs::cpu.data     0.998592                       # Average percentage of cache occupancy ((Ratio/Tick))
system.cpu.dcache.tags.avgOccs::total        0.998592                       # Average percentage of cache occupancy ((Ratio/Tick))
system.cpu.dcache.tags.occupanciesTaskId::1024         1024                       # Occupied blocks per task id (Count)
system.cpu.dcache.tags.ageTaskId_1024::0           95                       # Occupied blocks per task id, per block age (Count)
system.cpu.dcache.tags.ageTaskId_1024::1          923                       # Occupied blocks per task id, per block age (Count)
system.cpu.dcache.tags.ageTaskId_1024::3            2                       # Occupied blocks per task id, per block age (Count)
system.cpu.dcache.tags.ageTaskId_1024::4            4                       # Occupied blocks per task id, per block age (Count)
system.cpu.dcache.tags.ratioOccsTaskId::1024            1                       # Ratio of occupied blocks and all blocks, per task id (Ratio)
system.cpu.dcache.tags.tagAccesses           41750866                       # Number of tag accesses (Count)
system.cpu.dcache.tags.dataAccesses          41750866                       # Number of data accesses (Count)
system.cpu.dcache.tags.power_state.pwrStateResidencyTicks::UNDEFINED  25988820000                       # Cumulative time (in ticks) in various power states (Tick)
system.cpu.decode.idleCycles                  1799714                       # Number of cycles decode is idle (Cycle)
system.cpu.decode.blockedCycles              43328370                       # Number of cycles decode is blocked (Cycle)
system.cpu.decode.runCycles                   5091128                       # Number of cycles decode is running (Cycle)
system.cpu.decode.unblockCycles               1599547                       # Number of cycles decode is unblocking (Cycle)
system.cpu.decode.squashCycles                  20327                       # Number of cycles decode is squashing (Cycle)
system.cpu.decode.branchResolved               447884                       # Number of times decode resolved a branch (Count)
system.cpu.decode.branchMispred                   831                       # Number of times decode detected a branch misprediction (Count)
system.cpu.decode.decodedInsts               48600504                       # Number of instructions handled by decode (Count)
system.cpu.decode.squashedInsts                  2792                       # Number of squashed instructions handled by decode (Count)
system.cpu.fetch.icacheStallCycles            3356172                       # Number of cycles fetch is stalled on an Icache miss (Cycle)
system.cpu.fetch.insts                       46567207                       # Number of instructions fetch has processed (Count)
system.cpu.fetch.branches                      718273                       # Number of branches that fetch encountered (Count)
system.cpu.fetch.predictedBranches             489881                       # Number of branches that fetch has predicted taken (Count)
system.cpu.fetch.cycles                      48456026                       # Number of cycles fetch has run and was not squashing or blocked (Cycle)
system.cpu.fetch.squashCycles                   42270                       # Number of cycles fetch has spent squashing (Cycle)
system.cpu.fetch.miscStallCycles                  764                       # Number of cycles fetch has spent waiting on interrupts, or bad addresses, or out of MSHRs (Cycle)
system.cpu.fetch.pendingTrapStallCycles          4950                       # Number of stall cycles due to pending traps (Cycle)
system.cpu.fetch.icacheWaitRetryStallCycles           39                       # Number of stall cycles due to full MSHR (Cycle)
system.cpu.fetch.cacheLines                   3305038                       # Number of cache lines fetched (Count)
system.cpu.fetch.icacheSquashes                  4729                       # Number of outstanding Icache misses that were squashed (Count)
system.cpu.fetch.nisnDist::samples           51839086                       # Number of instructions fetched each cycle (Total) (Count)
system.cpu.fetch.nisnDist::mean              0.942505                       # Number of instructions fetched each cycle (Total) (Count)
system.cpu.fetch.nisnDist::stdev             2.473654                       # Number of instructions fetched each cycle (Total) (Count)
system.cpu.fetch.nisnDist::underflows               0      0.00%      0.00% # Number of instructions fetched each cycle (Total) (Count)
system.cpu.fetch.nisnDist::0                 44489548     85.82%     85.82% # Number of instructions fetched each cycle (Total) (Count)
system.cpu.fetch.nisnDist::1                    69950      0.13%     85.96% # Number of instructions fetched each cycle (Total) (Count)
system.cpu.fetch.nisnDist::2                  1127626      2.18%     88.13% # Number of instructions fetched each cycle (Total) (Count)
system.cpu.fetch.nisnDist::3                    64008      0.12%     88.26% # Number of instructions fetched each cycle (Total) (Count)
system.cpu.fetch.nisnDist::4                    70629      0.14%     88.39% # Number of instructions fetched each cycle (Total) (Count)
system.cpu.fetch.nisnDist::5                   336248      0.65%     89.04% # Number of instructions fetched each cycle (Total) (Count)
system.cpu.fetch.nisnDist::6                   517183      1.00%     90.04% # Number of instructions fetched each cycle (Total) (Count)
system.cpu.fetch.nisnDist::7                    36637      0.07%     90.11% # Number of instructions fetched each cycle (Total) (Count)
system.cpu.fetch.nisnDist::8                  5127257      9.89%    100.00% # Number of instructions fetched each cycle (Total) (Count)
system.cpu.fetch.nisnDist::overflows                0      0.00%    100.00% # Number of instructions fetched each cycle (Total) (Count)
system.cpu.fetch.nisnDist::min_value                0                       # Number of instructions fetched each cycle (Total) (Count)
system.cpu.fetch.nisnDist::max_value                8                       # Number of instructions fetched each cycle (Total) (Count)
system.cpu.fetch.nisnDist::total             51839086                       # Number of instructions fetched each cycle (Total) (Count)
system.cpu.fetch.branchRate                  0.013819                       # Number of branch fetches per cycle (Ratio)
system.cpu.fetch.rate                        0.895908                       # Number of inst fetches per cycle ((Count/Cycle))
system.cpu.icache.demandHits::cpu.inst        3302430                       # number of demand (read+write) hits (Count)
system.cpu.icache.demandHits::total           3302430                       # number of demand (read+write) hits (Count)
system.cpu.icache.overallHits::cpu.inst       3302430                       # number of overall hits (Count)
system.cpu.icache.overallHits::total          3302430                       # number of overall hits (Count)
system.cpu.icache.demandMisses::cpu.inst         2608                       # number of demand (read+write) misses (Count)
system.cpu.icache.demandMisses::total            2608                       # number of demand (read+write) misses (Count)
system.cpu.icache.overallMisses::cpu.inst         2608                       # number of overall misses (Count)
system.cpu.icache.overallMisses::total           2608                       # number of overall misses (Count)
system.cpu.icache.demandMissLatency::cpu.inst    174109998                       # number of demand (read+write) miss ticks (Tick)
system.cpu.icache.demandMissLatency::total    174109998                       # number of demand (read+write) miss ticks (Tick)
system.cpu.icache.overallMissLatency::cpu.inst    174109998                       # number of overall miss ticks (Tick)
system.cpu.icache.overallMissLatency::total    174109998                       # number of overall miss ticks (Tick)
system.cpu.icache.demandAccesses::cpu.inst      3305038                       # number of demand (read+write) accesses (Count)
system.cpu.icache.demandAccesses::total       3305038                       # number of demand (read+write) accesses (Count)
system.cpu.icache.overallAccesses::cpu.inst      3305038                       # number of overall (read+write) accesses (Count)
system.cpu.icache.overallAccesses::total      3305038                       # number of overall (read+write) accesses (Count)
system.cpu.icache.demandMissRate::cpu.inst     0.000789                       # miss rate for demand accesses (Ratio)
system.cpu.icache.demandMissRate::total      0.000789                       # miss rate for demand accesses (Ratio)
system.cpu.icache.overallMissRate::cpu.inst     0.000789                       # miss rate for overall accesses (Ratio)
system.cpu.icache.overallMissRate::total     0.000789                       # miss rate for overall accesses (Ratio)
system.cpu.icache.demandAvgMissLatency::cpu.inst 66759.968558                       # average overall miss latency in ticks ((Tick/Count))
system.cpu.icache.demandAvgMissLatency::total 66759.968558                       # average overall miss latency in ticks ((Tick/Count))
system.cpu.icache.overallAvgMissLatency::cpu.inst 66759.968558                       # average overall miss latency ((Tick/Count))
system.cpu.icache.overallAvgMissLatency::total 66759.968558                       # average overall miss latency ((Tick/Count))
system.cpu.icache.blockedCycles::no_mshrs          591                       # number of cycles access was blocked (Cycle)
system.cpu.icache.blockedCycles::no_targets            0                       # number of cycles access was blocked (Cycle)
system.cpu.icache.blockedCauses::no_mshrs           13                       # number of times access was blocked (Count)
system.cpu.icache.blockedCauses::no_targets            0                       # number of times access was blocked (Count)
system.cpu.icache.avgBlocked::no_mshrs      45.461538                       # average number of cycles each access was blocked ((Cycle/Count))
system.cpu.icache.avgBlocked::no_targets          nan                       # average number of cycles each access was blocked ((Cycle/Count))
system.cpu.icache.writebacks::writebacks         1782                       # number of writebacks (Count)
system.cpu.icache.writebacks::total              1782                       # number of writebacks (Count)
system.cpu.icache.demandMshrHits::cpu.inst          569                       # number of demand (read+write) MSHR hits (Count)
system.cpu.icache.demandMshrHits::total           569                       # number of demand (read+write) MSHR hits (Count)
system.cpu.icache.overallMshrHits::cpu.inst          569                       # number of overall MSHR hits (Count)
system.cpu.icache.overallMshrHits::total          569                       # number of overall MSHR hits (Count)
system.cpu.icache.demandMshrMisses::cpu.inst         2039                       # number of demand (read+write) MSHR misses (Count)
system.cpu.icache.demandMshrMisses::total         2039                       # number of demand (read+write) MSHR misses (Count)
system.cpu.icache.overallMshrMisses::cpu.inst         2039                       # number of overall MSHR misses (Count)
system.cpu.icache.overallMshrMisses::total         2039                       # number of overall MSHR misses (Count)
system.cpu.icache.demandMshrMissLatency::cpu.inst    136884499                       # number of demand (read+write) MSHR miss ticks (Tick)
system.cpu.icache.demandMshrMissLatency::total    136884499                       # number of demand (read+write) MSHR miss ticks (Tick)
system.cpu.icache.overallMshrMissLatency::cpu.inst    136884499                       # number of overall MSHR miss ticks (Tick)
system.cpu.icache.overallMshrMissLatency::total    136884499                       # number of overall MSHR miss ticks (Tick)
system.cpu.icache.demandMshrMissRate::cpu.inst     0.000617                       # mshr miss ratio for demand accesses (Ratio)
system.cpu.icache.demandMshrMissRate::total     0.000617                       # mshr miss ratio for demand accesses (Ratio)
system.cpu.icache.overallMshrMissRate::cpu.inst     0.000617                       # mshr miss ratio for overall accesses (Ratio)
system.cpu.icache.overallMshrMissRate::total     0.000617                       # mshr miss ratio for overall accesses (Ratio)
system.cpu.icache.demandAvgMshrMissLatency::cpu.inst 67133.153016                       # average overall mshr miss latency ((Tick/Count))
system.cpu.icache.demandAvgMshrMissLatency::total 67133.153016                       # average overall mshr miss latency ((Tick/Count))
system.cpu.icache.overallAvgMshrMissLatency::cpu.inst 67133.153016                       # average overall mshr miss latency ((Tick/Count))
system.cpu.icache.overallAvgMshrMissLatency::total 67133.153016                       # average overall mshr miss latency ((Tick/Count))
system.cpu.icache.replacements                   1782                       # number of replacements (Count)
system.cpu.icache.ReadReq.hits::cpu.inst      3302430                       # number of ReadReq hits (Count)
system.cpu.icache.ReadReq.hits::total         3302430                       # number of ReadReq hits (Count)
system.cpu.icache.ReadReq.misses::cpu.inst         2608                       # number of ReadReq misses (Count)
system.cpu.icache.ReadReq.misses::total          2608                       # number of ReadReq misses (Count)
system.cpu.icache.ReadReq.missLatency::cpu.inst    174109998                       # number of ReadReq miss ticks (Tick)
system.cpu.icache.ReadReq.missLatency::total    174109998                       # number of ReadReq miss ticks (Tick)
system.cpu.icache.ReadReq.accesses::cpu.inst      3305038                       # number of ReadReq accesses(hits+misses) (Count)
system.cpu.icache.ReadReq.accesses::total      3305038                       # number of ReadReq accesses(hits+misses) (Count)
system.cpu.icache.ReadReq.missRate::cpu.inst     0.000789                       # miss rate for ReadReq accesses (Ratio)
system.cpu.icache.ReadReq.missRate::total     0.000789                       # miss rate for ReadReq accesses (Ratio)
system.cpu.icache.ReadReq.avgMissLatency::cpu.inst 66759.968558                       # average ReadReq miss latency ((Tick/Count))
system.cpu.icache.ReadReq.avgMissLatency::total 66759.968558                       # average ReadReq miss latency ((Tick/Count))
system.cpu.icache.ReadReq.mshrHits::cpu.inst          569                       # number of ReadReq MSHR hits (Count)
system.cpu.icache.ReadReq.mshrHits::total          569                       # number of ReadReq MSHR hits (Count)
system.cpu.icache.ReadReq.mshrMisses::cpu.inst         2039                       # number of ReadReq MSHR misses (Count)
system.cpu.icache.ReadReq.mshrMisses::total         2039                       # number of ReadReq MSHR misses (Count)
system.cpu.icache.ReadReq.mshrMissLatency::cpu.inst    136884499                       # number of ReadReq MSHR miss ticks (Tick)
system.cpu.icache.ReadReq.mshrMissLatency::total    136884499                       # number of ReadReq MSHR miss ticks (Tick)
system.cpu.icache.ReadReq.mshrMissRate::cpu.inst     0.000617                       # mshr miss rate for ReadReq accesses (Ratio)
system.cpu.icache.ReadReq.mshrMissRate::total     0.000617                       # mshr miss rate for ReadReq accesses (Ratio)
system.cpu.icache.ReadReq.avgMshrMissLatency::cpu.inst 67133.153016                       # average ReadReq mshr miss latency ((Tick/Count))
system.cpu.icache.ReadReq.avgMshrMissLatency::total 67133.153016                       # average ReadReq mshr miss latency ((Tick/Count))
system.cpu.icache.power_state.pwrStateResidencyTicks::UNDEFINED  25988820000                       # Cumulative time (in ticks) in various power states (Tick)
system.cpu.icache.tags.tagsInUse           255.848168                       # Average ticks per tags in use ((Tick/Count))
system.cpu.icache.tags.totalRefs              3304468                       # Total number of references to valid blocks. (Count)
system.cpu.icache.tags.sampledRefs               2038                       # Sample count of references to valid blocks. (Count)
system.cpu.icache.tags.avgRefs            1621.426889                       # Average number of references to valid blocks. ((Count/Count))
system.cpu.icache.tags.warmupTick               87500                       # The tick when the warmup percentage was hit. (Tick)
system.cpu.icache.tags.occupancies::cpu.inst   255.848168                       # Average occupied blocks per tick, per requestor ((Count/Tick))
system.cpu.icache.tags.avgOccs::cpu.inst     0.999407                       # Average percentage of cache occupancy ((Ratio/Tick))
system.cpu.icache.tags.avgOccs::total        0.999407                       # Average percentage of cache occupancy ((Ratio/Tick))
system.cpu.icache.tags.occupanciesTaskId::1024          256                       # Occupied blocks per task id (Count)
system.cpu.icache.tags.ageTaskId_1024::0           79                       # Occupied blocks per task id, per block age (Count)
system.cpu.icache.tags.ageTaskId_1024::1           93                       # Occupied blocks per task id, per block age (Count)
system.cpu.icache.tags.ageTaskId_1024::4           84                       # Occupied blocks per task id, per block age (Count)
system.cpu.icache.tags.ratioOccsTaskId::1024            1                       # Ratio of occupied blocks and all blocks, per task id (Ratio)
system.cpu.icache.tags.tagAccesses           13222190                       # Number of tag accesses (Count)
system.cpu.icache.tags.dataAccesses          13222190                       # Number of data accesses (Count)
system.cpu.icache.tags.power_state.pwrStateResidencyTicks::UNDEFINED  25988820000                       # Cumulative time (in ticks) in various power states (Tick)
system.cpu.iew.idleCycles                           0                       # Number of cycles IEW is idle (Cycle)
system.cpu.iew.squashCycles                     20327                       # Number of cycles IEW is squashing (Cycle)
system.cpu.iew.blockCycles                   32105928                       # Number of cycles IEW is blocking (Cycle)
system.cpu.iew.unblockCycles                  1999529                       # Number of cycles IEW is unblocking (Cycle)
system.cpu.iew.dispatchedInsts               48394100                       # Number of instructions dispatched to IQ (Count)
system.cpu.iew.dispSquashedInsts                19373                       # Number of squashed instructions skipped by dispatch (Count)
system.cpu.iew.dispLoadInsts                  7442937                       # Number of dispatched load instructions (Count)
system.cpu.iew.dispStoreInsts                 3935961                       # Number of dispatched store instructions (Count)
system.cpu.iew.dispNonSpecInsts                   404                       # Number of dispatched non-speculative instructions (Count)
system.cpu.iew.iqFullEvents                    931380                       # Number of times the IQ has become full, causing a stall (Count)
system.cpu.iew.lsqFullEvents                   511026                       # Number of times the LSQ has become full, causing a stall (Count)
system.cpu.iew.memOrderViolationEvents            307                       # Number of memory order violations (Count)
system.cpu.iew.predictedTakenIncorrect          11317                       # Number of branches that were predicted taken incorrectly (Count)
system.cpu.iew.predictedNotTakenIncorrect         9755                       # Number of branches that were predicted not taken incorrectly (Count)
system.cpu.iew.branchMispredicts                21072                       # Number of branch mispredicts detected at execute (Count)
system.cpu.iew.instsToCommit                 48053219                       # Cumulative count of insts sent to commit (Count)
system.cpu.iew.writebackCount                48040700                       # Cumulative count of insts written-back (Count)
system.cpu.iew.producerInst                  41228988                       # Number of instructions producing a value (Count)
system.cpu.iew.consumerInst                  47795234                       # Number of instructions consuming a value (Count)
system.cpu.iew.wbRate                        0.924257                       # Insts written-back per cycle ((Count/Cycle))
system.cpu.iew.wbFanout                      0.862617                       # Average fanout of values written-back ((Count/Count))
system.cpu.lsq0.forwLoads                     1264594                       # Number of loads that had data forwarded from stores (Count)
system.cpu.lsq0.squashedLoads                  137052                       # Number of loads squashed (Count)
system.cpu.lsq0.ignoredResponses                   44                       # Number of memory responses ignored because the instruction is squashed (Count)
system.cpu.lsq0.memOrderViolation                 307                       # Number of memory ordering violations (Count)
system.cpu.lsq0.squashedStores                  47767                       # Number of stores squashed (Count)
system.cpu.lsq0.rescheduledLoads                42669                       # Number of loads that were rescheduled (Count)
system.cpu.lsq0.blockedByCache                1009960                       # Number of times an access to memory failed due to the cache being blocked (Count)
system.cpu.lsq0.loadToUse::samples            7305885                       # Distribution of cycle latency between the first time a load is issued and its completion (Unspecified)
system.cpu.lsq0.loadToUse::mean             62.283305                       # Distribution of cycle latency between the first time a load is issued and its completion (Unspecified)
system.cpu.lsq0.loadToUse::stdev            90.631013                       # Distribution of cycle latency between the first time a load is issued and its completion (Unspecified)
system.cpu.lsq0.loadToUse::0-9                3955872     54.15%     54.15% # Distribution of cycle latency between the first time a load is issued and its completion (Unspecified)
system.cpu.lsq0.loadToUse::10-19                49834      0.68%     54.83% # Distribution of cycle latency between the first time a load is issued and its completion (Unspecified)
system.cpu.lsq0.loadToUse::20-29               652096      8.93%     63.75% # Distribution of cycle latency between the first time a load is issued and its completion (Unspecified)
system.cpu.lsq0.loadToUse::30-39               205970      2.82%     66.57% # Distribution of cycle latency between the first time a load is issued and its completion (Unspecified)
system.cpu.lsq0.loadToUse::40-49                 6122      0.08%     66.66% # Distribution of cycle latency between the first time a load is issued and its completion (Unspecified)
[...]
system.mem_ctrls.dram.perBankWrBursts::10        25694                       # Per bank write bursts (Count)
system.mem_ctrls.dram.perBankWrBursts::11        27127                       # Per bank write bursts (Count)
system.mem_ctrls.dram.perBankWrBursts::12        26677                       # Per bank write bursts (Count)
system.mem_ctrls.dram.perBankWrBursts::13        26253                       # Per bank write bursts (Count)
system.mem_ctrls.dram.perBankWrBursts::14        26268                       # Per bank write bursts (Count)
system.mem_ctrls.dram.perBankWrBursts::15        25277                       # Per bank write bursts (Count)
system.mem_ctrls.dram.totQLat             11962823500                       # Total ticks spent queuing (Tick)
system.mem_ctrls.dram.totBusLat            4153075000                       # Total ticks spent in databus transfers (Tick)
system.mem_ctrls.dram.totMemAccLat        27536854750                       # Total ticks spent from burst creation until serviced by the DRAM (Tick)
system.mem_ctrls.dram.avgQLat                14402.37                       # Average queueing delay per DRAM burst ((Tick/Count))
system.mem_ctrls.dram.avgBusLat               5000.00                       # Average bus latency per DRAM burst ((Tick/Count))
system.mem_ctrls.dram.avgMemAccLat           33152.37                       # Average memory access latency per DRAM burst ((Tick/Count))
system.mem_ctrls.dram.readRowHits              761566                       # Number of row buffer hits during reads (Count)
system.mem_ctrls.dram.writeRowHits             371715                       # Number of row buffer hits during writes (Count)
system.mem_ctrls.dram.readRowHitRate            91.69                       # Row buffer hit rate for reads (Ratio)
system.mem_ctrls.dram.writeRowHitRate           89.12                       # Row buffer hit rate for writes (Ratio)
system.mem_ctrls.dram.bytesPerActivate::samples       114428                       # Bytes accessed per row activation (Byte)
system.mem_ctrls.dram.bytesPerActivate::mean   697.825288                       # Bytes accessed per row activation (Byte)
system.mem_ctrls.dram.bytesPerActivate::gmean   552.053906                       # Bytes accessed per row activation (Byte)
system.mem_ctrls.dram.bytesPerActivate::stdev   352.077283                       # Bytes accessed per row activation (Byte)
system.mem_ctrls.dram.bytesPerActivate::0-127         6318      5.52%      5.52% # Bytes accessed per row activation (Byte)
system.mem_ctrls.dram.bytesPerActivate::128-255        10393      9.08%     14.60% # Bytes accessed per row activation (Byte)
system.mem_ctrls.dram.bytesPerActivate::256-383         9700      8.48%     23.08% # Bytes accessed per row activation (Byte)
system.mem_ctrls.dram.bytesPerActivate::384-511         8978      7.85%     30.93% # Bytes accessed per row activation (Byte)
system.mem_ctrls.dram.bytesPerActivate::512-639         8833      7.72%     38.65% # Bytes accessed per row activation (Byte)
system.mem_ctrls.dram.bytesPerActivate::640-767         7615      6.65%     45.30% # Bytes accessed per row activation (Byte)
system.mem_ctrls.dram.bytesPerActivate::768-895         6234      5.45%     50.75% # Bytes accessed per row activation (Byte)
system.mem_ctrls.dram.bytesPerActivate::896-1023         6109      5.34%     56.09% # Bytes accessed per row activation (Byte)
system.mem_ctrls.dram.bytesPerActivate::1024-1151        50248     43.91%    100.00% # Bytes accessed per row activation (Byte)
system.mem_ctrls.dram.bytesPerActivate::total       114428                       # Bytes accessed per row activation (Byte)
system.mem_ctrls.dram.bytesRead              53159360                       # Total bytes read (Byte)
system.mem_ctrls.dram.bytesWritten           26695040                       # Total bytes written (Byte)
system.mem_ctrls.dram.avgRdBW             2045.470321                       # Average DRAM read bandwidth in MiBytes/s ((Byte/Second))
system.mem_ctrls.dram.avgWrBW             1027.173993                       # Average DRAM write bandwidth in MiBytes/s ((Byte/Second))
system.mem_ctrls.dram.peakBW                 12800.00                       # Theoretical peak bandwidth in MiByte/s ((Byte/Second))
system.mem_ctrls.dram.busUtil                   24.01                       # Data bus utilization in percentage (Ratio)
system.mem_ctrls.dram.busUtilRead               15.98                       # Data bus utilization in percentage for reads (Ratio)
system.mem_ctrls.dram.busUtilWrite               8.02                       # Data bus utilization in percentage for writes (Ratio)
system.mem_ctrls.dram.pageHitRate               90.83                       # Row buffer hit rate, read and write combined (Ratio)
system.mem_ctrls.dram.power_state.pwrStateResidencyTicks::UNDEFINED  25988820000                       # Cumulative time (in ticks) in various power states (Tick)
system.mem_ctrls.dram.rank0.actEnergy       407029980                       # Energy for activate commands per rank (pJ) (Joule)
system.mem_ctrls.dram.rank0.preEnergy       216311205                       # Energy for precharge commands per rank (pJ) (Joule)
system.mem_ctrls.dram.rank0.readEnergy     2937003300                       # Energy for read commands per rank (pJ) (Joule)
system.mem_ctrls.dram.rank0.writeEnergy    1078175340                       # Energy for write commands per rank (pJ) (Joule)
system.mem_ctrls.dram.rank0.refreshEnergy 2051053680.000000                       # Energy for refresh commands per rank (pJ) (Joule)
system.mem_ctrls.dram.rank0.actBackEnergy  10651012020                       # Energy for active background per rank (pJ) (Joule)
system.mem_ctrls.dram.rank0.preBackEnergy   1010433600                       # Energy for precharge background per rank (pJ) (Joule)
system.mem_ctrls.dram.rank0.actPowerDownEnergy            0                       # Energy for active power-down per rank (pJ) (Joule)
system.mem_ctrls.dram.rank0.prePowerDownEnergy            0                       # Energy for precharge power-down per rank (pJ) (Joule)
system.mem_ctrls.dram.rank0.selfRefreshEnergy            0                       # Energy for self refresh per rank (pJ) (Joule)
system.mem_ctrls.dram.rank0.totalEnergy   18351019125                       # Total energy per rank (pJ) (Joule)
system.mem_ctrls.dram.rank0.averagePower   706.112056                       # Core power per rank (mW) (Watt)
system.mem_ctrls.dram.rank0.totalIdleTime            0                       # Total Idle time Per DRAM Rank (Tick)
system.mem_ctrls.dram.rank0.pwrStateTime::IDLE   2511456500                       # Time in different power states (Tick)
system.mem_ctrls.dram.rank0.pwrStateTime::REF    867620000                       # Time in different power states (Tick)
system.mem_ctrls.dram.rank0.pwrStateTime::SREF            0                       # Time in different power states (Tick)
system.mem_ctrls.dram.rank0.pwrStateTime::PRE_PDN            0                       # Time in different power states (Tick)
system.mem_ctrls.dram.rank0.pwrStateTime::ACT  22609743500                       # Time in different power states (Tick)
system.mem_ctrls.dram.rank0.pwrStateTime::ACT_PDN            0                       # Time in different power states (Tick)
system.mem_ctrls.dram.rank1.actEnergy       410100180                       # Energy for activate commands per rank (pJ) (Joule)
system.mem_ctrls.dram.rank1.preEnergy       217943055                       # Energy for precharge commands per rank (pJ) (Joule)
system.mem_ctrls.dram.rank1.readEnergy     2993587800                       # Energy for read commands per rank (pJ) (Joule)
system.mem_ctrls.dram.rank1.writeEnergy    1099138860                       # Energy for write commands per rank (pJ) (Joule)
system.mem_ctrls.dram.rank1.refreshEnergy 2051053680.000000                       # Energy for refresh commands per rank (pJ) (Joule)
system.mem_ctrls.dram.rank1.actBackEnergy  10636844100                       # Energy for active background per rank (pJ) (Joule)
system.mem_ctrls.dram.rank1.preBackEnergy   1022364480                       # Energy for precharge background per rank (pJ) (Joule)
system.mem_ctrls.dram.rank1.actPowerDownEnergy            0                       # Energy for active power-down per rank (pJ) (Joule)
system.mem_ctrls.dram.rank1.prePowerDownEnergy            0                       # Energy for precharge power-down per rank (pJ) (Joule)
system.mem_ctrls.dram.rank1.selfRefreshEnergy            0                       # Energy for self refresh per rank (pJ) (Joule)
system.mem_ctrls.dram.rank1.totalEnergy   18431032155                       # Total energy per rank (pJ) (Joule)
system.mem_ctrls.dram.rank1.averagePower   709.190804                       # Core power per rank (mW) (Watt)
system.mem_ctrls.dram.rank1.totalIdleTime            0                       # Total Idle time Per DRAM Rank (Tick)
system.mem_ctrls.dram.rank1.pwrStateTime::IDLE   2544385500                       # Time in different power states (Tick)
system.mem_ctrls.dram.rank1.pwrStateTime::REF    867620000                       # Time in different power states (Tick)
system.mem_ctrls.dram.rank1.pwrStateTime::SREF            0                       # Time in different power states (Tick)
system.mem_ctrls.dram.rank1.pwrStateTime::PRE_PDN            0                       # Time in different power states (Tick)
system.mem_ctrls.dram.rank1.pwrStateTime::ACT  22576814500                       # Time in different power states (Tick)
system.mem_ctrls.dram.rank1.pwrStateTime::ACT_PDN            0                       # Time in different power states (Tick)
system.mem_ctrls.power_state.pwrStateResidencyTicks::UNDEFINED  25988820000                       # Cumulative time (in ticks) in various power states (Tick)
system.membus.transDist::ReadResp              829157                       # Transaction distribution (Count)
system.membus.transDist::WritebackDirty        417136                       # Transaction distribution (Count)
system.membus.transDist::CleanEvict            409453                       # Transaction distribution (Count)
system.membus.transDist::ReadExReq               1480                       # Transaction distribution (Count)
system.membus.transDist::ReadExResp              1480                       # Transaction distribution (Count)
system.membus.transDist::ReadSharedReq         829157                       # Transaction distribution (Count)
system.membus.transDist::InvalidateReq            139                       # Transaction distribution (Count)
system.membus.pktCount_system.l2.mem_side_port::system.mem_ctrls.port      2488002                       # Packet count per connected requestor and responder (Count)
system.membus.pktCount::total                 2488002                       # Packet count per connected requestor and responder (Count)
system.membus.pktSize_system.l2.mem_side_port::system.mem_ctrls.port     79857472                       # Cumulative packet size per connected requestor and responder (Byte)
system.membus.pktSize::total                 79857472                       # Cumulative packet size per connected requestor and responder (Byte)
system.membus.snoops                                0                       # Total snoops (Count)
system.membus.snoopTraffic                          0                       # Total snoop traffic (Byte)
system.membus.snoopFanout::samples             830776                       # Request fanout histogram (Count)
system.membus.snoopFanout::mean                     0                       # Request fanout histogram (Count)
system.membus.snoopFanout::stdev                    0                       # Request fanout histogram (Count)
system.membus.snoopFanout::underflows               0      0.00%      0.00% # Request fanout histogram (Count)
system.membus.snoopFanout::0                   830776    100.00%    100.00% # Request fanout histogram (Count)
system.membus.snoopFanout::1                        0      0.00%    100.00% # Request fanout histogram (Count)
system.membus.snoopFanout::overflows                0      0.00%    100.00% # Request fanout histogram (Count)
system.membus.snoopFanout::min_value                0                       # Request fanout histogram (Count)
system.membus.snoopFanout::max_value                0                       # Request fanout histogram (Count)
system.membus.snoopFanout::total               830776                       # Request fanout histogram (Count)
system.membus.power_state.pwrStateResidencyTicks::UNDEFINED  25988820000                       # Cumulative time (in ticks) in various power states (Tick)
system.membus.reqLayer0.occupancy          3560111500                       # Layer occupancy (ticks) (Tick)
system.membus.reqLayer0.utilization               0.1                       # Layer utilization (Ratio)
system.membus.respLayer1.occupancy         4290840750                       # Layer occupancy (ticks) (Tick)
system.membus.respLayer1.utilization              0.2                       # Layer utilization (Ratio)
system.membus.snoop_filter.totRequests        1657365                       # Total number of requests made to the snoop filter. (Count)
system.membus.snoop_filter.hitSingleRequests       826589                       # Number of requests hitting in the snoop filter with a single holder of the requested data. (Count)
system.membus.snoop_filter.hitMultiRequests            0                       # Number of requests hitting in the snoop filter with multiple (>1) holders of the requested data. (Count)
system.membus.snoop_filter.totSnoops                0                       # Total number of snoops made to the snoop filter. (Count)
system.membus.snoop_filter.hitSingleSnoops            0                       # Number of snoops hitting in the snoop filter with a single holder of the requested data. (Count)
system.membus.snoop_filter.hitMultiSnoops            0                       # Number of snoops hitting in the snoop filter with multiple (>1) holders of the requested data. (Count)
system.tol2bus.transDist::ReadResp            1647194                       # Transaction distribution (Count)
system.tol2bus.transDist::WritebackDirty      1649741                       # Transaction distribution (Count)
system.tol2bus.transDist::WritebackClean         1782                       # Transaction distribution (Count)
system.tol2bus.transDist::CleanEvict           823904                       # Transaction distribution (Count)
system.tol2bus.transDist::ReadExReq              2143                       # Transaction distribution (Count)
system.tol2bus.transDist::ReadExResp             2143                       # Transaction distribution (Count)
system.tol2bus.transDist::ReadCleanReq           2039                       # Transaction distribution (Count)
system.tol2bus.transDist::ReadSharedReq       1645156                       # Transaction distribution (Count)
system.tol2bus.transDist::InvalidateReq           155                       # Transaction distribution (Count)
system.tol2bus.transDist::InvalidateResp          155                       # Transaction distribution (Count)
system.tol2bus.pktCount_system.cpu.icache.mem_side_port::system.l2.cpu_side_port         5859                       # Packet count per connected requestor and responder (Count)
system.tol2bus.pktCount_system.cpu.dcache.mem_side_port::system.l2.cpu_side_port      4941338                       # Packet count per connected requestor and responder (Count)
system.tol2bus.pktCount::total                4947197                       # Packet count per connected requestor and responder (Count)
system.tol2bus.pktSize_system.cpu.icache.mem_side_port::system.l2.cpu_side_port       244480                       # Cumulative packet size per connected requestor and responder (Byte)
system.tol2bus.pktSize_system.cpu.dcache.mem_side_port::system.l2.cpu_side_port    184313856                       # Cumulative packet size per connected requestor and responder (Byte)
system.tol2bus.pktSize::total               184558336                       # Cumulative packet size per connected requestor and responder (Byte)
system.tol2bus.snoops                          827215                       # Total snoops (Count)
system.tol2bus.snoopTraffic                  26696704                       # Total snoop traffic (Byte)
system.tol2bus.snoopFanout::samples           2476708                       # Request fanout histogram (Count)
system.tol2bus.snoopFanout::mean             0.000322                       # Request fanout histogram (Count)
system.tol2bus.snoopFanout::stdev            0.017936                       # Request fanout histogram (Count)
system.tol2bus.snoopFanout::underflows              0      0.00%      0.00% # Request fanout histogram (Count)
system.tol2bus.snoopFanout::0                 2475911     99.97%     99.97% # Request fanout histogram (Count)
system.tol2bus.snoopFanout::1                     797      0.03%    100.00% # Request fanout histogram (Count)
system.tol2bus.snoopFanout::2                       0      0.00%    100.00% # Request fanout histogram (Count)
system.tol2bus.snoopFanout::overflows               0      0.00%    100.00% # Request fanout histogram (Count)
system.tol2bus.snoopFanout::min_value               0                       # Request fanout histogram (Count)
system.tol2bus.snoopFanout::max_value               1                       # Request fanout histogram (Count)
system.tol2bus.snoopFanout::total             2476708                       # Request fanout histogram (Count)
system.tol2bus.power_state.pwrStateResidencyTicks::UNDEFINED  25988820000                       # Cumulative time (in ticks) in various power states (Tick)
system.tol2bus.reqLayer0.occupancy         2883239500                       # Layer occupancy (ticks) (Tick)
system.tol2bus.reqLayer0.utilization              0.1                       # Layer utilization (Ratio)
system.tol2bus.respLayer0.occupancy           3057998                       # Layer occupancy (ticks) (Tick)
system.tol2bus.respLayer0.utilization             0.0                       # Layer utilization (Ratio)
system.tol2bus.respLayer1.occupancy        2471026000                       # Layer occupancy (ticks) (Tick)
system.tol2bus.respLayer1.utilization             0.1                       # Layer utilization (Ratio)
system.tol2bus.snoop_filter.totRequests       3297705                       # Total number of requests made to the snoop filter. (Count)
system.tol2bus.snoop_filter.hitSingleRequests      1648212                       # Number of requests hitting in the snoop filter with a single holder of the requested data. (Count)
system.tol2bus.snoop_filter.hitMultiRequests            1                       # Number of requests hitting in the snoop filter with multiple (>1) holders of the requested data. (Count)
system.tol2bus.snoop_filter.totSnoops             796                       # Total number of snoops made to the snoop filter. (Count)
system.tol2bus.snoop_filter.hitSingleSnoops          796                       # Number of snoops hitting in the snoop filter with a single holder of the requested data. (Count)
system.tol2bus.snoop_filter.hitMultiSnoops            0                       # Number of snoops hitting in the snoop filter with multiple (>1) holders of the requested data. (Count)
system.voltage_domain.voltage                       1                       # Voltage in Volts (Volt)
system.workload.inst.arm                            0                       # number of arm instructions executed (Count)
system.workload.inst.quiesce                        0                       # number of quiesce instructions executed (Count)

---------- End Simulation Statistics   ----------
