
---------- Begin Simulation Statistics ----------
simSeconds                                   0.004196                       # Number of seconds simulated (Second)
simTicks                                   4196051000                       # Number of ticks simulated (Tick)
finalTick                                  4196051000                       # Number of ticks from beginning of simulation (restored from checkpoints and never reset) (Tick)
simFreq                                  1000000000000                       # The number of ticks per simulated second ((Tick/Second))
hostSeconds                                     36.70                       # Real time elapsed on the host (Second)
hostTickRate                                114346553                       # The number of ticks simulated per host second (ticks/s) ((Tick/Second))
hostMemory                                     681140                       # Number of bytes of host memory used (Byte)
simInsts                                      9513017                       # Number of instructions simulated (Count)
simOps                                       11025625                       # Number of ops (including micro ops) simulated (Count)
hostInstRate                                   259238                       # Simulator instruction rate (inst/s) ((Count/Second))
hostOpRate                                     300458                       # Simulator op (including micro ops) rate (op/s) ((Count/Second))
system.clk_domain.clock                          1000                       # Clock period in ticks (Tick)
system.cpu.numCycles                          8392103                       # Number of cpu cycles simulated (Cycle)
system.cpu.numWorkItemsStarted                      0                       # Number of work items this cpu started (Count)
system.cpu.numWorkItemsCompleted                    0                       # Number of work items this cpu completed (Count)
system.cpu.instsAdded                        11596307                       # Number of instructions added to the IQ (excludes non-spec) (Count)
system.cpu.nonSpecInstsAdded                      407                       # Number of non-speculative instructions added to the IQ (Count)
system.cpu.instsIssued                       11411775                       # Number of instructions issued (Count)
system.cpu.squashedInstsIssued                   2185                       # Number of squashed instructions issued (Count)
system.cpu.squashedInstsExamined               571088                       # Number of squashed instructions iterated over during squash; mainly for profiling (Count)
system.cpu.squashedOperandsExamined            449140                       # Number of squashed operands that are examined and possibly removed from graph (Count)
system.cpu.squashedNonSpecRemoved                 136                       # Number of squashed non-spec instructions that were removed (Count)
system.cpu.numIssuedDist::samples             8244599                       # Number of insts issued each cycle (Count)
system.cpu.numIssuedDist::mean               1.384152                       # Number of insts issued each cycle (Count)
system.cpu.numIssuedDist::stdev              2.021636                       # Number of insts issued each cycle (Count)
system.cpu.numIssuedDist::underflows                0      0.00%      0.00% # Number of insts issued each cycle (Count)
system.cpu.numIssuedDist::0                   4581267     55.57%     55.57% # Number of insts issued each cycle (Count)
system.cpu.numIssuedDist::1                   1046709     12.70%     68.26% # Number of insts issued each cycle (Count)
system.cpu.numIssuedDist::2                    698219      8.47%     76.73% # Number of insts issued each cycle (Count)
system.cpu.numIssuedDist::3                    338950      4.11%     80.84% # Number of insts issued each cycle (Count)
system.cpu.numIssuedDist::4                    776462      9.42%     90.26% # Number of insts issued each cycle (Count)
system.cpu.numIssuedDist::5                    323265      3.92%     94.18% # Number of insts issued each cycle (Count)
system.cpu.numIssuedDist::6                    258436      3.13%     97.32% # Number of insts issued each cycle (Count)
system.cpu.numIssuedDist::7                     91339      1.11%     98.42% # Number of insts issued each cycle (Count)
system.cpu.numIssuedDist::8                    129952      1.58%    100.00% # Number of insts issued each cycle (Count)
system.cpu.numIssuedDist::overflows                 0      0.00%    100.00% # Number of insts issued each cycle (Count)
system.cpu.numIssuedDist::min_value                 0                       # Number of insts issued each cycle (Count)
system.cpu.numIssuedDist::max_value                 8                       # Number of insts issued each cycle (Count)
system.cpu.numIssuedDist::total               8244599                       # Number of insts issued each cycle (Count)
system.cpu.statFuBusy::No_OpClass                   0      0.00%      0.00% # attempts to use FU when none available (Count)
system.cpu.statFuBusy::IntAlu                   20828      1.73%      1.73% # attempts to use FU when none available (Count)
system.cpu.statFuBusy::IntMult                      0      0.00%      1.73% # attempts to use FU when none available (Count)
system.cpu.statFuBusy::IntDiv                  948096     78.73%     80.46% # attempts to use FU when none available (Count)
system.cpu.statFuBusy::FloatAdd                     0      0.00%     80.46% # attempts to use FU when none available (Count)
system.cpu.statFuBusy::FloatCmp                     0      0.00%     80.46% # attempts to use FU when none available (Count)
system.cpu.statFuBusy::FloatCvt                     0      0.00%     80.46% # attempts to use FU when none available (Count)
system.cpu.statFuBusy::FloatMult                    0      0.00%     80.46% # attempts to use FU when none available (Count)
system.cpu.statFuBusy::FloatMultAcc                 0      0.00%     80.46% # attempts to use FU when none available (Count)
system.cpu.statFuBusy::FloatDiv                     0      0.00%     80.46% # attempts to use FU when none available (Count)
system.cpu.statFuBusy::FloatMisc                    0      0.00%     80.46% # attempts to use FU when none available (Count)
system.cpu.statFuBusy::FloatSqrt                    0      0.00%     80.46% # attempts to use FU when none available (Count)
system.cpu.statFuBusy::SimdAdd                      0      0.00%     80.46% # attempts to use FU when none available (Count)
system.cpu.statFuBusy::SimdAddAcc                   0      0.00%     80.46% # attempts to use FU when none available (Count)
system.cpu.statFuBusy::SimdAlu                     19      0.00%     80.46% # attempts to use FU when none available (Count)
system.cpu.statFuBusy::SimdCmp                     14      0.00%     80.46% # attempts to use FU when none available (Count)
system.cpu.statFuBusy::SimdCvt                      0      0.00%     80.46% # attempts to use FU when none available (Count)
system.cpu.statFuBusy::SimdMisc                     0      0.00%     80.46% # attempts to use FU when none available (Count)
system.cpu.statFuBusy::SimdMult                     0      0.00%     80.46% # attempts to use FU when none available (Count)
system.cpu.statFuBusy::SimdMultAcc                  0      0.00%     80.46% # attempts to use FU when none available (Count)
system.cpu.statFuBusy::SimdShift                    0      0.00%     80.46% # attempts to use FU when none available (Count)
system.cpu.statFuBusy::SimdShiftAcc                 0      0.00%     80.46% # attempts to use FU when none available (Count)
system.cpu.statFuBusy::SimdDiv                      0      0.00%     80.46% # attempts to use FU when none available (Count)
system.cpu.statFuBusy::SimdSqrt                     0      0.00%     80.46% # attempts to use FU when none available (Count)
system.cpu.statFuBusy::SimdFloatAdd                 0      0.00%     80.46% # attempts to use FU when none available (Count)
system.cpu.statFuBusy::SimdFloatAlu                 0      0.00%     80.46% # attempts to use FU when none available (Count)
system.cpu.statFuBusy::SimdFloatCmp                 0      0.00%     80.46% # attempts to use FU when none available (Count)
system.cpu.statFuBusy::SimdFloatCvt                 0      0.00%     80.46% # attempts to use FU when none available (Count)
system.cpu.statFuBusy::SimdFloatDiv                 0      0.00%     80.46% # attempts to use FU when none available (Count)
system.cpu.statFuBusy::SimdFloatMisc                0      0.00%     80.46% # attempts to use FU when none available (Count)
system.cpu.statFuBusy::SimdFloatMult                0      0.00%     80.46% # attempts to use FU when none available (Count)
system.cpu.statFuBusy::SimdFloatMultAcc             0      0.00%     80.46% # attempts to use FU when none available (Count)
system.cpu.statFuBusy::SimdFloatSqrt                0      0.00%     80.46% # attempts to use FU when none available (Count)
system.cpu.statFuBusy::SimdReduceAdd                0      0.00%     80.46% # attempts to use FU when none available (Count)
system.cpu.statFuBusy::SimdReduceAlu                0      0.00%     80.46% # attempts to use FU when none available (Count)
system.cpu.statFuBusy::SimdReduceCmp                0      0.00%     80.46% # attempts to use FU when none available (Count)
system.cpu.statFuBusy::SimdFloatReduceAdd            0      0.00%     80.46% # attempts to use FU when none available (Count)
system.cpu.statFuBusy::SimdFloatReduceCmp            0      0.00%     80.46% # attempts to use FU when none available (Count)
system.cpu.statFuBusy::SimdAes                      0      0.00%     80.46% # attempts to use FU when none available (Count)
system.cpu.statFuBusy::SimdAesMix                   0      0.00%     80.46% # attempts to use FU when none available (Count)
system.cpu.statFuBusy::SimdSha1Hash                 0      0.00%     80.46% # attempts to use FU when none available (Count)
system.cpu.statFuBusy::SimdSha1Hash2                0      0.00%     80.46% # attempts to use FU when none available (Count)
system.cpu.statFuBusy::SimdSha256Hash               0      0.00%     80.46% # attempts to use FU when none available (Count)
system.cpu.statFuBusy::SimdSha256Hash2              0      0.00%     80.46% # attempts to use FU when none available (Count)
system.cpu.statFuBusy::SimdShaSigma2                0      0.00%     80.46% # attempts to use FU when none available (Count)
system.cpu.statFuBusy::SimdShaSigma3                0      0.00%     80.46% # attempts to use FU when none available (Count)
system.cpu.statFuBusy::SimdPredAlu                  0      0.00%     80.46% # attempts to use FU when none available (Count)
system.cpu.statFuBusy::MemRead                 220376     18.30%     98.76% # attempts to use FU when none available (Count)
system.cpu.statFuBusy::MemWrite                 14948      1.24%    100.00% # attempts to use FU when none available (Count)
system.cpu.statFuBusy::FloatMemRead                 0      0.00%    100.00% # attempts to use FU when none available (Count)
system.cpu.statFuBusy::FloatMemWrite                0      0.00%    100.00% # attempts to use FU when none available (Count)
system.cpu.statFuBusy::IprAccess                    0      0.00%    100.00% # attempts to use FU when none available (Count)
system.cpu.statFuBusy::InstPrefetch                 0      0.00%    100.00% # attempts to use FU when none available (Count)
system.cpu.statIssuedInstType_0::No_OpClass       497470      4.36%      4.36% # Number of instructions issued per FU type, per thread (Count)
system.cpu.statIssuedInstType_0::IntAlu       5628714     49.32%     53.68% # Number of instructions issued per FU type, per thread (Count)
system.cpu.statIssuedInstType_0::IntMult         7645      0.07%     53.75% # Number of instructions issued per FU type, per thread (Count)
system.cpu.statIssuedInstType_0::IntDiv        302833      2.65%     56.40% # Number of instructions issued per FU type, per thread (Count)
system.cpu.statIssuedInstType_0::FloatAdd            0      0.00%     56.40% # Number of instructions issued per FU type, per thread (Count)
system.cpu.statIssuedInstType_0::FloatCmp            0      0.00%     56.40% # Number of instructions issued per FU type, per thread (Count)
system.cpu.statIssuedInstType_0::FloatCvt            0      0.00%     56.40% # Number of instructions issued per FU type, per thread (Count)
system.cpu.statIssuedInstType_0::FloatMult            0      0.00%     56.40% # Number of instructions issued per FU type, per thread (Count)
system.cpu.statIssuedInstType_0::FloatMultAcc            0      0.00%     56.40% # Number of instructions issued per FU type, per thread (Count)
system.cpu.statIssuedInstType_0::FloatDiv            0      0.00%     56.40% # Number of instructions issued per FU type, per thread (Count)
system.cpu.statIssuedInstType_0::FloatMisc            2      0.00%     56.40% # Number of instructions issued per FU type, per thread (Count)
system.cpu.statIssuedInstType_0::FloatSqrt            0      0.00%     56.40% # Number of instructions issued per FU type, per thread (Count)
system.cpu.statIssuedInstType_0::SimdAdd       892831      7.82%     64.23% # Number of instructions issued per FU type, per thread (Count)
system.cpu.statIssuedInstType_0::SimdAddAcc            0      0.00%     64.23% # Number of instructions issued per FU type, per thread (Count)
system.cpu.statIssuedInstType_0::SimdAlu       100571      0.88%     65.11% # Number of instructions issued per FU type, per thread (Count)
system.cpu.statIssuedInstType_0::SimdCmp          125      0.00%     65.11% # Number of instructions issued per FU type, per thread (Count)
system.cpu.statIssuedInstType_0::SimdCvt            0      0.00%     65.11% # Number of instructions issued per FU type, per thread (Count)
system.cpu.statIssuedInstType_0::SimdMisc       892860      7.82%     72.93% # Number of instructions issued per FU type, per thread (Count)
system.cpu.statIssuedInstType_0::SimdMult       892736      7.82%     80.76% # Number of instructions issued per FU type, per thread (Count)
system.cpu.statIssuedInstType_0::SimdMultAcc            0      0.00%     80.76% # Number of instructions issued per FU type, per thread (Count)
system.cpu.statIssuedInstType_0::SimdShift            0      0.00%     80.76% # Number of instructions issued per FU type, per thread (Count)
system.cpu.statIssuedInstType_0::SimdShiftAcc            0      0.00%     80.76% # Number of instructions issued per FU type, per thread (Count)
system.cpu.statIssuedInstType_0::SimdDiv            0      0.00%     80.76% # Number of instructions issued per FU type, per thread (Count)
system.cpu.statIssuedInstType_0::SimdSqrt            0      0.00%     80.76% # Number of instructions issued per FU type, per thread (Count)
system.cpu.statIssuedInstType_0::SimdFloatAdd            0      0.00%     80.76% # Number of instructions issued per FU type, per thread (Count)
system.cpu.statIssuedInstType_0::SimdFloatAlu            0      0.00%     80.76% # Number of instructions issued per FU type, per thread (Count)
system.cpu.statIssuedInstType_0::SimdFloatCmp            0      0.00%     80.76% # Number of instructions issued per FU type, per thread (Count)
system.cpu.statIssuedInstType_0::SimdFloatCvt            0      0.00%     80.76% # Number of instructions issued per FU type, per thread (Count)
system.cpu.statIssuedInstType_0::SimdFloatDiv            0      0.00%     80.76% # Number of instructions issued per FU type, per thread (Count)
system.cpu.statIssuedInstType_0::SimdFloatMisc            0      0.00%     80.76% # Number of instructions issued per FU type, per thread (Count)
system.cpu.statIssuedInstType_0::SimdFloatMult            0      0.00%     80.76% # Number of instructions issued per FU type, per thread (Count)
system.cpu.statIssuedInstType_0::SimdFloatMultAcc            0      0.00%     80.76% # Number of instructions issued per FU type, per thread (Count)
system.cpu.statIssuedInstType_0::SimdFloatSqrt            0      0.00%     80.76% # Number of instructions issued per FU type, per thread (Count)
system.cpu.statIssuedInstType_0::SimdReduceAdd            0      0.00%     80.76% # Number of instructions issued per FU type, per thread (Count)
system.cpu.statIssuedInstType_0::SimdReduceAlu            0      0.00%     80.76% # Number of instructions issued per FU type, per thread (Count)
system.cpu.statIssuedInstType_0::SimdReduceCmp            0      0.00%     80.76% # Number of instructions issued per FU type, per thread (Count)
system.cpu.statIssuedInstType_0::SimdFloatReduceAdd            0      0.00%     80.76% # Number of instructions issued per FU type, per thread (Count)
system.cpu.statIssuedInstType_0::SimdFloatReduceCmp            0      0.00%     80.76% # Number of instructions issued per FU type, per thread (Count)
system.cpu.statIssuedInstType_0::SimdAes            0      0.00%     80.76% # Number of instructions issued per FU type, per thread (Count)
system.cpu.statIssuedInstType_0::SimdAesMix            0      0.00%     80.76% # Number of instructions issued per FU type, per thread (Count)
system.cpu.statIssuedInstType_0::SimdSha1Hash            0      0.00%     80.76% # Number of instructions issued per FU type, per thread (Count)
system.cpu.statIssuedInstType_0::SimdSha1Hash2            0      0.00%     80.76% # Number of instructions issued per FU type, per thread (Count)
system.cpu.statIssuedInstType_0::SimdSha256Hash            0      0.00%     80.76% # Number of instructions issued per FU type, per thread (Count)
system.cpu.statIssuedInstType_0::SimdSha256Hash2            0      0.00%     80.76% # Number of instructions issued per FU type, per thread (Count)
system.cpu.statIssuedInstType_0::SimdShaSigma2            0      0.00%     80.76% # Number of instructions issued per FU type, per thread (Count)
system.cpu.statIssuedInstType_0::SimdShaSigma3            0      0.00%     80.76% # Number of instructions issued per FU type, per thread (Count)
system.cpu.statIssuedInstType_0::SimdPredAlu            0      0.00%     80.76% # Number of instructions issued per FU type, per thread (Count)
system.cpu.statIssuedInstType_0::MemRead      1752952     15.36%     96.12% # Number of instructions issued per FU type, per thread (Count)
system.cpu.statIssuedInstType_0::MemWrite       443036      3.88%    100.00% # Number of instructions issued per FU type, per thread (Count)
system.cpu.statIssuedInstType_0::FloatMemRead            0      0.00%    100.00% # Number of instructions issued per FU type, per thread (Count)
system.cpu.statIssuedInstType_0::FloatMemWrite            0      0.00%    100.00% # Number of instructions issued per FU type, per thread (Count)
system.cpu.statIssuedInstType_0::IprAccess            0      0.00%    100.00% # Number of instructions issued per FU type, per thread (Count)
system.cpu.statIssuedInstType_0::InstPrefetch            0      0.00%    100.00% # Number of instructions issued per FU type, per thread (Count)
system.cpu.statIssuedInstType_0::total       11411775                       # Number of instructions issued per FU type, per thread (Count)
system.cpu.issueRate                         1.359823                       # Inst issue rate ((Count/Cycle))
system.cpu.fuBusy                             1204281                       # FU busy when requested (Count)
system.cpu.fuBusyRate                        0.105530                       # FU busy rate (busy events/executed inst) ((Count/Count))
system.cpu.intInstQueueReads                 23725167                       # Number of integer instruction queue reads (Count)
system.cpu.intInstQueueWrites                 7879746                       # Number of integer instruction queue writes (Count)
system.cpu.intInstQueueWakeupAccesses         7046287                       # Number of integer instruction queue wakeup accesses (Count)
system.cpu.fpInstQueueReads                         0                       # Number of floating instruction queue reads (Count)
system.cpu.fpInstQueueWrites                        0                       # Number of floating instruction queue writes (Count)
system.cpu.fpInstQueueWakeupAccesses                0                       # Number of floating instruction queue wakeup accesses (Count)
system.cpu.vecInstQueueReads                  8549448                       # Number of vector instruction queue reads (Count)
system.cpu.vecInstQueueWrites                 4288135                       # Number of vector instruction queue writes (Count)
system.cpu.vecInstQueueWakeupAccesses         4272135                       # Number of vector instruction queue wakeup accesses (Count)
system.cpu.intAluAccesses                     8338448                       # Number of integer alu accesses (Count)
system.cpu.fpAluAccesses                            0                       # Number of floating point alu accesses (Count)
system.cpu.vecAluAccesses                     3780138                       # Number of vector alu accesses (Count)
system.cpu.numInsts                          11387470                       # Number of executed instructions (Count)
system.cpu.numLoadInsts                       1741268                       # Number of load instructions executed (Count)
system.cpu.numSquashedInsts                     24305                       # Number of squashed instructions skipped in execute (Count)
system.cpu.numSwp                                   0                       # Number of swp insts executed (Count)
system.cpu.numNop                               25609                       # Number of nop insts executed (Count)
system.cpu.numRefs                            2182726                       # Number of memory reference insts executed (Count)
system.cpu.numBranches                        1117388                       # Number of branches executed (Count)
system.cpu.numStoreInsts                       441458                       # Number of stores executed (Count)
system.cpu.numRate                           1.356927                       # Inst execution rate ((Count/Cycle))
system.cpu.timesIdled                            1533                       # Number of times that the entire CPU went into an idle state and unscheduled itself (Count)
system.cpu.idleCycles                          147504                       # Total number of cycles that the CPU has spent unscheduled due to idling (Cycle)
system.cpu.committedInsts                     9513017                       # Number of Instructions Simulated (Count)
system.cpu.committedOps                      11025625                       # Number of Ops (including micro ops) Simulated (Count)
system.cpu.cpi                               0.882171                       # CPI: Cycles Per Instruction ((Cycle/Count))
system.cpu.totalCpi                          0.882171                       # CPI: Total CPI of All Threads ((Cycle/Count))
system.cpu.ipc                               1.133568                       # IPC: Instructions Per Cycle ((Count/Cycle))
system.cpu.totalIpc                          1.133568                       # IPC: Total IPC of All Threads ((Count/Cycle))
system.cpu.intRegfileReads                   10247667                       # Number of integer regfile reads (Count)
system.cpu.intRegfileWrites                   5308994                       # Number of integer regfile writes (Count)
system.cpu.vecRegfileReads                   10131303                       # number of vector regfile reads (Count)
system.cpu.ccRegfileReads                     3489177                       # number of cc regfile reads (Count)
system.cpu.ccRegfileWrites                    3483834                       # number of cc regfile writes (Count)
system.cpu.miscRegfileReads                   8002504                       # number of misc regfile reads (Count)
system.cpu.miscRegfileWrites                      209                       # number of misc regfile writes (Count)
system.cpu.MemDepUnit__0.insertedLoads        1738092                       # Number of loads inserted to the mem dependence unit. (Count)
system.cpu.MemDepUnit__0.insertedStores        448966                       # Number of stores inserted to the mem dependence unit. (Count)
system.cpu.MemDepUnit__0.conflictingLoads      1002008                       # Number of conflicting loads. (Count)
system.cpu.MemDepUnit__0.conflictingStores       231637                       # Number of conflicting stores. (Count)
system.cpu.MemDepUnit__1.insertedLoads              0                       # Number of loads inserted to the mem dependence unit. (Count)
system.cpu.MemDepUnit__1.insertedStores             0                       # Number of stores inserted to the mem dependence unit. (Count)
system.cpu.MemDepUnit__1.conflictingLoads            0                       # Number of conflicting loads. (Count)
system.cpu.MemDepUnit__1.conflictingStores            0                       # Number of conflicting stores. (Count)
system.cpu.MemDepUnit__2.insertedLoads              0                       # Number of loads inserted to the mem dependence unit. (Count)
system.cpu.MemDepUnit__2.insertedStores             0                       # Number of stores inserted to the mem dependence unit. (Count)
system.cpu.MemDepUnit__2.conflictingLoads            0                       # Number of conflicting loads. (Count)
system.cpu.MemDepUnit__2.conflictingStores            0                       # Number of conflicting stores. (Count)
system.cpu.MemDepUnit__3.insertedLoads              0                       # Number of loads inserted to the mem dependence unit. (Count)
system.cpu.MemDepUnit__3.insertedStores             0                       # Number of stores inserted to the mem dependence unit. (Count)
system.cpu.MemDepUnit__3.conflictingLoads            0                       # Number of conflicting loads. (Count)
system.cpu.MemDepUnit__3.conflictingStores            0                       # Number of conflicting stores. (Count)
system.cpu.branchPred.lookups                 1242679                       # Number of BP lookups (Count)
system.cpu.branchPred.condPredicted           1167723                       # Number of conditional branches predicted (Count)
system.cpu.branchPred.condIncorrect             15919                       # Number of conditional branches incorrect (Count)
system.cpu.branchPred.BTBLookups               496427                       # Number of BTB lookups (Count)
system.cpu.branchPred.BTBUpdates                 7872                       # Number of BTB updates (Count)
system.cpu.branchPred.BTBHits                  493420                       # Number of BTB hits (Count)
system.cpu.branchPred.BTBHitRatio            0.993943                       # BTB Hit Ratio (Ratio)
system.cpu.branchPred.RASUsed                   17627                       # Number of times the RAS was used to get a target. (Count)
system.cpu.branchPred.RASIncorrect                 45                       # Number of incorrect RAS predictions. (Count)
system.cpu.branchPred.indirectLookups            6857                       # Number of indirect predictor lookups. (Count)
system.cpu.branchPred.indirectHits               1336                       # Number of indirect target hits. (Count)
system.cpu.branchPred.indirectMisses             5521                       # Number of indirect misses. (Count)
system.cpu.branchPred.indirectMispredicted          688                       # Number of mispredicted indirect branches. (Count)
system.cpu.commit.commitSquashedInsts          568214                       # The number of squashed insts skipped by commit (Count)
system.cpu.commit.commitNonSpecStalls             271                       # The number of times commit has been forced to stall to communicate backwards (Count)
system.cpu.commit.branchMispredicts             15815                       # The number of times a branch was mispredicted (Count)
system.cpu.commit.numCommittedDist::samples      8156144                       # Number of insts commited each cycle (Count)
system.cpu.commit.numCommittedDist::mean     1.354909                       # Number of insts commited each cycle (Count)
system.cpu.commit.numCommittedDist::stdev     2.338366                       # Number of insts commited each cycle (Count)
system.cpu.commit.numCommittedDist::underflows            0      0.00%      0.00% # Number of insts commited each cycle (Count)
system.cpu.commit.numCommittedDist::0         5000712     61.31%     61.31% # Number of insts commited each cycle (Count)
system.cpu.commit.numCommittedDist::1         1006434     12.34%     73.65% # Number of insts commited each cycle (Count)
system.cpu.commit.numCommittedDist::2          479860      5.88%     79.54% # Number of insts commited each cycle (Count)
system.cpu.commit.numCommittedDist::3          305890      3.75%     83.29% # Number of insts commited each cycle (Count)
system.cpu.commit.numCommittedDist::4          609009      7.47%     90.75% # Number of insts commited each cycle (Count)
system.cpu.commit.numCommittedDist::5           53810      0.66%     91.41% # Number of insts commited each cycle (Count)
system.cpu.commit.numCommittedDist::6           48600      0.60%     92.01% # Number of insts commited each cycle (Count)
system.cpu.commit.numCommittedDist::7           44310      0.54%     92.55% # Number of insts commited each cycle (Count)
system.cpu.commit.numCommittedDist::8          607519      7.45%    100.00% # Number of insts commited each cycle (Count)
system.cpu.commit.numCommittedDist::overflows            0      0.00%    100.00% # Number of insts commited each cycle (Count)
system.cpu.commit.numCommittedDist::min_value            0                       # Number of insts commited each cycle (Count)
system.cpu.commit.numCommittedDist::max_value            8                       # Number of insts commited each cycle (Count)
system.cpu.commit.numCommittedDist::total      8156144                       # Number of insts commited each cycle (Count)
system.cpu.commit.instsCommitted              9538224                       # Number of instructions committed (Count)
system.cpu.commit.opsCommitted               11050832                       # Number of ops (including micro ops) committed (Count)
system.cpu.commit.memRefs                     2038867                       # Number of memory references committed (Count)
system.cpu.commit.loads                       1627189                       # Number of loads committed (Count)
system.cpu.commit.amos                            104                       # Number of atomic instructions committed (Count)
system.cpu.commit.membars                         112                       # Number of memory barriers committed (Count)
system.cpu.commit.branches                    1068136                       # Number of branches committed (Count)
system.cpu.commit.vectorInstructions          4269951                       # Number of committed Vector instructions. (Count)
system.cpu.commit.floating                          0                       # Number of committed floating point instructions. (Count)
system.cpu.commit.integer                     7791861                       # Number of committed integer instructions. (Count)
system.cpu.commit.functionCalls                 11039                       # Number of function calls committed. (Count)
system.cpu.commit.committedInstType_0::No_OpClass       496527      4.49%      4.49% # Class of committed instruction (Count)
system.cpu.commit.committedInstType_0::IntAlu      5427965     49.12%     53.61% # Class of committed instruction (Count)
system.cpu.commit.committedInstType_0::IntMult         7074      0.06%     53.68% # Class of committed instruction (Count)
system.cpu.commit.committedInstType_0::IntDiv       302283      2.74%     56.41% # Class of committed instruction (Count)
system.cpu.commit.committedInstType_0::FloatAdd            0      0.00%     56.41% # Class of committed instruction (Count)
system.cpu.commit.committedInstType_0::FloatCmp            0      0.00%     56.41% # Class of committed instruction (Count)
system.cpu.commit.committedInstType_0::FloatCvt            0      0.00%     56.41% # Class of committed instruction (Count)
system.cpu.commit.committedInstType_0::FloatMult            0      0.00%     56.41% # Class of committed instruction (Count)
system.cpu.commit.committedInstType_0::FloatMultAcc            0      0.00%     56.41% # Class of committed instruction (Count)
system.cpu.commit.committedInstType_0::FloatDiv            0      0.00%     56.41% # Class of committed instruction (Count)
system.cpu.commit.committedInstType_0::FloatMisc            2      0.00%     56.41% # Class of committed instruction (Count)
system.cpu.commit.committedInstType_0::FloatSqrt            0      0.00%     56.41% # Class of committed instruction (Count)
system.cpu.commit.committedInstType_0::SimdAdd       892523      8.08%     64.49% # Class of committed instruction (Count)
system.cpu.commit.committedInstType_0::SimdAddAcc            0      0.00%     64.49% # Class of committed instruction (Count)
system.cpu.commit.committedInstType_0::SimdAlu       100503      0.91%     65.40% # Class of committed instruction (Count)
system.cpu.commit.committedInstType_0::SimdCmp           93      0.00%     65.40% # Class of committed instruction (Count)
system.cpu.commit.committedInstType_0::SimdCvt            0      0.00%     65.40% # Class of committed instruction (Count)
system.cpu.commit.committedInstType_0::SimdMisc       892547      8.08%     73.47% # Class of committed instruction (Count)
system.cpu.commit.committedInstType_0::SimdMult       892448      8.08%     81.55% # Class of committed instruction (Count)
system.cpu.commit.committedInstType_0::SimdMultAcc            0      0.00%     81.55% # Class of committed instruction (Count)
system.cpu.commit.committedInstType_0::SimdShift            0      0.00%     81.55% # Class of committed instruction (Count)
system.cpu.commit.committedInstType_0::SimdShiftAcc            0      0.00%     81.55% # Class of committed instruction (Count)
system.cpu.commit.committedInstType_0::SimdDiv            0      0.00%     81.55% # Class of committed instruction (Count)
system.cpu.commit.committedInstType_0::SimdSqrt            0      0.00%     81.55% # Class of committed instruction (Count)
system.cpu.commit.committedInstType_0::SimdFloatAdd            0      0.00%     81.55% # Class of committed instruction (Count)
system.cpu.commit.committedInstType_0::SimdFloatAlu            0      0.00%     81.55% # Class of committed instruction (Count)
system.cpu.commit.committedInstType_0::SimdFloatCmp            0      0.00%     81.55% # Class of committed instruction (Count)
system.cpu.commit.committedInstType_0::SimdFloatCvt            0      0.00%     81.55% # Class of committed instruction (Count)
system.cpu.commit.committedInstType_0::SimdFloatDiv            0      0.00%     81.55% # Class of committed instruction (Count)
system.cpu.commit.committedInstType_0::SimdFloatMisc            0      0.00%     81.55% # Class of committed instruction (Count)
system.cpu.commit.committedInstType_0::SimdFloatMult            0      0.00%     81.55% # Class of committed instruction (Count)
system.cpu.commit.committedInstType_0::SimdFloatMultAcc            0      0.00%     81.55% # Class of committed instruction (Count)
system.cpu.commit.committedInstType_0::SimdFloatSqrt            0      0.00%     81.55% # Class of committed instruction (Count)
system.cpu.commit.committedInstType_0::SimdReduceAdd            0      0.00%     81.55% # Class of committed instruction (Count)
system.cpu.commit.committedInstType_0::SimdReduceAlu            0      0.00%     81.55% # Class of committed instruction (Count)
system.cpu.commit.committedInstType_0::SimdReduceCmp            0      0.00%     81.55% # Class of committed instruction (Count)
system.cpu.commit.committedInstType_0::SimdFloatReduceAdd            0      0.00%     81.55% # Class of committed instruction (Count)
system.cpu.commit.committedInstType_0::SimdFloatReduceCmp            0      0.00%     81.55% # Class of committed instruction (Count)
system.cpu.commit.committedInstType_0::SimdAes            0      0.00%     81.55% # Class of committed instruction (Count)
system.cpu.commit.committedInstType_0::SimdAesMix            0      0.00%     81.55% # Class of committed instruction (Count)
system.cpu.commit.committedInstType_0::SimdSha1Hash            0      0.00%     81.55% # Class of committed instruction (Count)
system.cpu.commit.committedInstType_0::SimdSha1Hash2            0      0.00%     81.55% # Class of committed instruction (Count)
system.cpu.commit.committedInstType_0::SimdSha256Hash            0      0.00%     81.55% # Class of committed instruction (Count)
system.cpu.commit.committedInstType_0::SimdSha256Hash2            0      0.00%     81.55% # Class of committed instruction (Count)
system.cpu.commit.committedInstType_0::SimdShaSigma2            0      0.00%     81.55% # Class of committed instruction (Count)
system.cpu.commit.committedInstType_0::SimdShaSigma3            0      0.00%     81.55% # Class of committed instruction (Count)
system.cpu.commit.committedInstType_0::SimdPredAlu            0      0.00%     81.55% # Class of committed instruction (Count)
system.cpu.commit.committedInstType_0::MemRead      1627189     14.72%     96.27% # Class of committed instruction (Count)
system.cpu.commit.committedInstType_0::MemWrite       411678      3.73%    100.00% # Class of committed instruction (Count)
system.cpu.commit.committedInstType_0::FloatMemRead            0      0.00%    100.00% # Class of committed instruction (Count)
system.cpu.commit.committedInstType_0::FloatMemWrite            0      0.00%    100.00% # Class of committed instruction (Count)
system.cpu.commit.committedInstType_0::IprAccess            0      0.00%    100.00% # Class of committed instruction (Count)
system.cpu.commit.committedInstType_0::InstPrefetch            0      0.00%    100.00% # Class of committed instruction (Count)
system.cpu.commit.committedInstType_0::total     11050832                       # Class of committed instruction (Count)
system.cpu.commit.commitEligibleSamples        607519                       # number cycles where commit BW limit reached (Cycle)
system.cpu.dcache.demandHits::cpu.data        1785417                       # number of demand (read+write) hits (Count)
system.cpu.dcache.demandHits::total           1785417                       # number of demand (read+write) hits (Count)
system.cpu.dcache.overallHits::cpu.data       1785417                       # number of overall hits (Count)
system.cpu.dcache.overallHits::total          1785417                       # number of overall hits (Count)
system.cpu.dcache.demandMisses::cpu.data       105009                       # number of demand (read+write) misses (Count)
system.cpu.dcache.demandMisses::total          105009                       # number of demand (read+write) misses (Count)
system.cpu.dcache.overallMisses::cpu.data       105009                       # number of overall misses (Count)
system.cpu.dcache.overallMisses::total         105009                       # number of overall misses (Count)
system.cpu.dcache.demandMissLatency::cpu.data   7446107496                       # number of demand (read+write) miss ticks (Tick)
system.cpu.dcache.demandMissLatency::total   7446107496                       # number of demand (read+write) miss ticks (Tick)
system.cpu.dcache.overallMissLatency::cpu.data   7446107496                       # number of overall miss ticks (Tick)
system.cpu.dcache.overallMissLatency::total   7446107496                       # number of overall miss ticks (Tick)
system.cpu.dcache.demandAccesses::cpu.data      1890426                       # number of demand (read+write) accesses (Count)
system.cpu.dcache.demandAccesses::total       1890426                       # number of demand (read+write) accesses (Count)
system.cpu.dcache.overallAccesses::cpu.data      1890426                       # number of overall (read+write) accesses (Count)
system.cpu.dcache.overallAccesses::total      1890426                       # number of overall (read+write) accesses (Count)
system.cpu.dcache.demandMissRate::cpu.data     0.055548                       # miss rate for demand accesses (Ratio)
system.cpu.dcache.demandMissRate::total      0.055548                       # miss rate for demand accesses (Ratio)
system.cpu.dcache.overallMissRate::cpu.data     0.055548                       # miss rate for overall accesses (Ratio)
system.cpu.dcache.overallMissRate::total     0.055548                       # miss rate for overall accesses (Ratio)
system.cpu.dcache.demandAvgMissLatency::cpu.data 70909.231552                       # average overall miss latency in ticks ((Tick/Count))
system.cpu.dcache.demandAvgMissLatency::total 70909.231552                       # average overall miss latency in ticks ((Tick/Count))
system.cpu.dcache.overallAvgMissLatency::cpu.data 70909.231552                       # average overall miss latency ((Tick/Count))
system.cpu.dcache.overallAvgMissLatency::total 70909.231552                       # average overall miss latency ((Tick/Count))
system.cpu.dcache.blockedCycles::no_mshrs        94532                       # number of cycles access was blocked (Cycle)
system.cpu.dcache.blockedCycles::no_targets          543                       # number of cycles access was blocked (Cycle)
system.cpu.dcache.blockedCauses::no_mshrs         2103                       # number of times access was blocked (Count)
system.cpu.dcache.blockedCauses::no_targets           13                       # number of times access was blocked (Count)
system.cpu.dcache.avgBlocked::no_mshrs      44.951022                       # average number of cycles each access was blocked ((Cycle/Count))
system.cpu.dcache.avgBlocked::no_targets    41.769231                       # average number of cycles each access was blocked ((Cycle/Count))
system.cpu.dcache.writebacks::writebacks        15915                       # number of writebacks (Count)
system.cpu.dcache.writebacks::total             15915                       # number of writebacks (Count)
system.cpu.dcache.demandMshrHits::cpu.data        50672                       # number of demand (read+write) MSHR hits (Count)
system.cpu.dcache.demandMshrHits::total         50672                       # number of demand (read+write) MSHR hits (Count)
system.cpu.dcache.overallMshrHits::cpu.data        50672                       # number of overall MSHR hits (Count)
system.cpu.dcache.overallMshrHits::total        50672                       # number of overall MSHR hits (Count)
system.cpu.dcache.demandMshrMisses::cpu.data        54337                       # number of demand (read+write) MSHR misses (Count)
system.cpu.dcache.demandMshrMisses::total        54337                       # number of demand (read+write) MSHR misses (Count)
system.cpu.dcache.overallMshrMisses::cpu.data        54337                       # number of overall MSHR misses (Count)
system.cpu.dcache.overallMshrMisses::total        54337                       # number of overall MSHR misses (Count)
system.cpu.dcache.demandMshrMissLatency::cpu.data   4008441203                       # number of demand (read+write) MSHR miss ticks (Tick)
system.cpu.dcache.demandMshrMissLatency::total   4008441203                       # number of demand (read+write) MSHR miss ticks (Tick)
system.cpu.dcache.overallMshrMissLatency::cpu.data   4008441203                       # number of overall MSHR miss ticks (Tick)
system.cpu.dcache.overallMshrMissLatency::total   4008441203                       # number of overall MSHR miss ticks (Tick)
system.cpu.dcache.demandMshrMissRate::cpu.data     0.028743                       # mshr miss ratio for demand accesses (Ratio)
system.cpu.dcache.demandMshrMissRate::total     0.028743                       # mshr miss ratio for demand accesses (Ratio)
system.cpu.dcache.overallMshrMissRate::cpu.data     0.028743                       # mshr miss ratio for overall accesses (Ratio)
system.cpu.dcache.overallMshrMissRate::total     0.028743                       # mshr miss ratio for overall accesses (Ratio)
system.cpu.dcache.demandAvgMshrMissLatency::cpu.data 73770.013122                       # average overall mshr miss latency ((Tick/Count))
system.cpu.dcache.demandAvgMshrMissLatency::total 73770.013122                       # average overall mshr miss latency ((Tick/Count))
system.cpu.dcache.overallAvgMshrMissLatency::cpu.data 73770.013122                       # average overall mshr miss latency ((Tick/Count))
system.cpu.dcache.overallAvgMshrMissLatency::total 73770.013122                       # average overall mshr miss latency ((Tick/Count))
system.cpu.dcache.replacements                  53319                       # number of replacements (Count)
system.cpu.dcache.ReadReq.hits::cpu.data      1379556                       # number of ReadReq hits (Count)
system.cpu.dcache.ReadReq.hits::total         1379556                       # number of ReadReq hits (Count)
system.cpu.dcache.ReadReq.misses::cpu.data        99281                       # number of ReadReq misses (Count)
system.cpu.dcache.ReadReq.misses::total         99281                       # number of ReadReq misses (Count)
system.cpu.dcache.ReadReq.missLatency::cpu.data   7102482500                       # number of ReadReq miss ticks (Tick)
system.cpu.dcache.ReadReq.missLatency::total   7102482500                       # number of ReadReq miss ticks (Tick)
system.cpu.dcache.ReadReq.accesses::cpu.data      1478837                       # number of ReadReq accesses(hits+misses) (Count)
system.cpu.dcache.ReadReq.accesses::total      1478837                       # number of ReadReq accesses(hits+misses) (Count)
system.cpu.dcache.ReadReq.missRate::cpu.data     0.067135                       # miss rate for ReadReq accesses (Ratio)
system.cpu.dcache.ReadReq.missRate::total     0.067135                       # miss rate for ReadReq accesses (Ratio)
system.cpu.dcache.ReadReq.avgMissLatency::cpu.data 71539.191789                       # average ReadReq miss latency ((Tick/Count))
system.cpu.dcache.ReadReq.avgMissLatency::total 71539.191789                       # average ReadReq miss latency ((Tick/Count))
system.cpu.dcache.ReadReq.mshrHits::cpu.data        47200                       # number of ReadReq MSHR hits (Count)
system.cpu.dcache.ReadReq.mshrHits::total        47200                       # number of ReadReq MSHR hits (Count)
system.cpu.dcache.ReadReq.mshrMisses::cpu.data        52081                       # number of ReadReq MSHR misses (Count)
system.cpu.dcache.ReadReq.mshrMisses::total        52081                       # number of ReadReq MSHR misses (Count)
system.cpu.dcache.ReadReq.mshrMissLatency::cpu.data   3874558500                       # number of ReadReq MSHR miss ticks (Tick)
system.cpu.dcache.ReadReq.mshrMissLatency::total   3874558500                       # number of ReadReq MSHR miss ticks (Tick)
system.cpu.dcache.ReadReq.mshrMissRate::cpu.data     0.035218                       # mshr miss rate for ReadReq accesses (Ratio)
system.cpu.dcache.ReadReq.mshrMissRate::total     0.035218                       # mshr miss rate for ReadReq accesses (Ratio)
system.cpu.dcache.ReadReq.avgMshrMissLatency::cpu.data 74394.856090                       # average ReadReq mshr miss latency ((Tick/Count))
system.cpu.dcache.ReadReq.avgMshrMissLatency::total 74394.856090                       # average ReadReq mshr miss latency ((Tick/Count))
system.cpu.dcache.SwapReq.hits::cpu.data           98                       # number of SwapReq hits (Count)
system.cpu.dcache.SwapReq.hits::total              98                       # number of SwapReq hits (Count)
system.cpu.dcache.SwapReq.misses::cpu.data            6                       # number of SwapReq misses (Count)
system.cpu.dcache.SwapReq.misses::total             6                       # number of SwapReq misses (Count)
system.cpu.dcache.SwapReq.missLatency::cpu.data       375000                       # number of SwapReq miss ticks (Tick)
system.cpu.dcache.SwapReq.missLatency::total       375000                       # number of SwapReq miss ticks (Tick)
system.cpu.dcache.SwapReq.accesses::cpu.data          104                       # number of SwapReq accesses(hits+misses) (Count)
system.cpu.dcache.SwapReq.accesses::total          104                       # number of SwapReq accesses(hits+misses) (Count)
system.cpu.dcache.SwapReq.missRate::cpu.data     0.057692                       # miss rate for SwapReq accesses (Ratio)
system.cpu.dcache.SwapReq.missRate::total     0.057692                       # miss rate for SwapReq accesses (Ratio)
system.cpu.dcache.SwapReq.avgMissLatency::cpu.data        62500                       # average SwapReq miss latency ((Tick/Count))
system.cpu.dcache.SwapReq.avgMissLatency::total        62500                       # average SwapReq miss latency ((Tick/Count))
system.cpu.dcache.SwapReq.mshrMisses::cpu.data            6                       # number of SwapReq MSHR misses (Count)
system.cpu.dcache.SwapReq.mshrMisses::total            6                       # number of SwapReq MSHR misses (Count)
system.cpu.dcache.SwapReq.mshrMissLatency::cpu.data       369000                       # number of SwapReq MSHR miss ticks (Tick)
system.cpu.dcache.SwapReq.mshrMissLatency::total       369000                       # number of SwapReq MSHR miss ticks (Tick)
system.cpu.dcache.SwapReq.mshrMissRate::cpu.data     0.057692                       # mshr miss rate for SwapReq accesses (Ratio)
system.cpu.dcache.SwapReq.mshrMissRate::total     0.057692                       # mshr miss rate for SwapReq accesses (Ratio)
system.cpu.dcache.SwapReq.avgMshrMissLatency::cpu.data        61500                       # average SwapReq mshr miss latency ((Tick/Count))
system.cpu.dcache.SwapReq.avgMshrMissLatency::total        61500                       # average SwapReq mshr miss latency ((Tick/Count))
system.cpu.dcache.WriteLineReq.misses::cpu.data          131                       # number of WriteLineReq misses (Count)
system.cpu.dcache.WriteLineReq.misses::total          131                       # number of WriteLineReq misses (Count)
system.cpu.dcache.WriteLineReq.missLatency::cpu.data      4174908                       # number of WriteLineReq miss ticks (Tick)
system.cpu.dcache.WriteLineReq.missLatency::total      4174908                       # number of WriteLineReq miss ticks (Tick)
system.cpu.dcache.WriteLineReq.accesses::cpu.data          131                       # number of WriteLineReq accesses(hits+misses) (Count)
system.cpu.dcache.WriteLineReq.accesses::total          131                       # number of WriteLineReq accesses(hits+misses) (Count)
system.cpu.dcache.WriteLineReq.missRate::cpu.data            1                       # miss rate for WriteLineReq accesses (Ratio)
system.cpu.dcache.WriteLineReq.missRate::total            1                       # miss rate for WriteLineReq accesses (Ratio)
system.cpu.dcache.WriteLineReq.avgMissLatency::cpu.data 31869.526718                       # average WriteLineReq miss latency ((Tick/Count))
system.cpu.dcache.WriteLineReq.avgMissLatency::total 31869.526718                       # average WriteLineReq miss latency ((Tick/Count))
system.cpu.dcache.WriteLineReq.mshrMisses::cpu.data          131                       # number of WriteLineReq MSHR misses (Count)
system.cpu.dcache.WriteLineReq.mshrMisses::total          131                       # number of WriteLineReq MSHR misses (Count)
system.cpu.dcache.WriteLineReq.mshrMissLatency::cpu.data      4043908                       # number of WriteLineReq MSHR miss ticks (Tick)
system.cpu.dcache.WriteLineReq.mshrMissLatency::total      4043908                       # number of WriteLineReq MSHR miss ticks (Tick)
system.cpu.dcache.WriteLineReq.mshrMissRate::cpu.data            1                       # mshr miss rate for WriteLineReq accesses (Ratio)
system.cpu.dcache.WriteLineReq.mshrMissRate::total            1                       # mshr miss rate for WriteLineReq accesses (Ratio)
system.cpu.dcache.WriteLineReq.avgMshrMissLatency::cpu.data 30869.526718                       # average WriteLineReq mshr miss latency ((Tick/Count))
system.cpu.dcache.WriteLineReq.avgMshrMissLatency::total 30869.526718                       # average WriteLineReq mshr miss latency ((Tick/Count))
system.cpu.dcache.WriteReq.hits::cpu.data       405861                       # number of WriteReq hits (Count)
system.cpu.dcache.WriteReq.hits::total         405861                       # number of WriteReq hits (Count)
system.cpu.dcache.WriteReq.misses::cpu.data         5597                       # number of WriteReq misses (Count)
system.cpu.dcache.WriteReq.misses::total         5597                       # number of WriteReq misses (Count)
system.cpu.dcache.WriteReq.missLatency::cpu.data    339450088                       # number of WriteReq miss ticks (Tick)
system.cpu.dcache.WriteReq.missLatency::total    339450088                       # number of WriteReq miss ticks (Tick)
system.cpu.dcache.WriteReq.accesses::cpu.data       411458                       # number of WriteReq accesses(hits+misses) (Count)
system.cpu.dcache.WriteReq.accesses::total       411458                       # number of WriteReq accesses(hits+misses) (Count)
system.cpu.dcache.WriteReq.missRate::cpu.data     0.013603                       # miss rate for WriteReq accesses (Ratio)
system.cpu.dcache.WriteReq.missRate::total     0.013603                       # miss rate for WriteReq accesses (Ratio)
system.cpu.dcache.WriteReq.avgMissLatency::cpu.data 60648.577452                       # average WriteReq miss latency ((Tick/Count))
system.cpu.dcache.WriteReq.avgMissLatency::total 60648.577452                       # average WriteReq miss latency ((Tick/Count))
system.cpu.dcache.WriteReq.mshrHits::cpu.data         3472                       # number of WriteReq MSHR hits (Count)
system.cpu.dcache.WriteReq.mshrHits::total         3472                       # number of WriteReq MSHR hits (Count)
system.cpu.dcache.WriteReq.mshrMisses::cpu.data         2125                       # number of WriteReq MSHR misses (Count)
system.cpu.dcache.WriteReq.mshrMisses::total         2125                       # number of WriteReq MSHR misses (Count)
system.cpu.dcache.WriteReq.mshrMissLatency::cpu.data    129838795                       # number of WriteReq MSHR miss ticks (Tick)
system.cpu.dcache.WriteReq.mshrMissLatency::total    129838795                       # number of WriteReq MSHR miss ticks (Tick)
system.cpu.dcache.WriteReq.mshrMissRate::cpu.data     0.005165                       # mshr miss rate for WriteReq accesses (Ratio)
system.cpu.dcache.WriteReq.mshrMissRate::total     0.005165                       # mshr miss rate for WriteReq accesses (Ratio)
system.cpu.dcache.WriteReq.avgMshrMissLatency::cpu.data 61100.609412                       # average WriteReq mshr miss latency ((Tick/Count))
system.cpu.dcache.WriteReq.avgMshrMissLatency::total 61100.609412                       # average WriteReq mshr miss latency ((Tick/Count))
system.cpu.dcache.power_state.pwrStateResidencyTicks::UNDEFINED   4196051000                       # Cumulative time (in ticks) in various power states (Tick)
system.cpu.dcache.tags.tagsInUse          1015.065543                       # Average ticks per tags in use ((Tick/Count))
system.cpu.dcache.tags.totalRefs              1839858                       # Total number of references to valid blocks. (Count)
system.cpu.dcache.tags.sampledRefs              54343                       # Sample count of references to valid blocks. (Count)
system.cpu.dcache.tags.avgRefs              33.856394                       # Average number of references to valid blocks. ((Count/Count))
system.cpu.dcache.tags.warmupTick              253500                       # The tick when the warmup percentage was hit. (Tick)
system.cpu.dcache.tags.occupancies::cpu.data  1015.065543                       # Average occupied blocks per tick, per requestor ((Count/Tick))
system.cpu.dcache.tags.avgOccs::cpu.data     0.991275                       # Average percentage of cache occupancy ((Ratio/Tick))
system.cpu.dcache.tags.avgOccs::total        0.991275                       # Average percentage of cache occupancy ((Ratio/Tick))
system.cpu.dcache.tags.occupanciesTaskId::1024         1024                       # Occupied blocks per task id (Count)
system.cpu.dcache.tags.ageTaskId_1024::0           89                       # Occupied blocks per task id, per block age (Count)
system.cpu.dcache.tags.ageTaskId_1024::1          870                       # Occupied blocks per task id, per block age (Count)
system.cpu.dcache.tags.ageTaskId_1024::2           63                       # Occupied blocks per task id, per block age (Count)
system.cpu.dcache.tags.ageTaskId_1024::3            2                       # Occupied blocks per task id, per block age (Count)
system.cpu.dcache.tags.ratioOccsTaskId::1024            1                       # Ratio of occupied blocks and all blocks, per task id (Ratio)
system.cpu.dcache.tags.tagAccesses            7616463                       # Number of tag accesses (Count)
system.cpu.dcache.tags.dataAccesses           7616463                       # Number of data accesses (Count)
system.cpu.dcache.tags.power_state.pwrStateResidencyTicks::UNDEFINED   4196051000                       # Cumulative time (in ticks) in various power states (Tick)
system.cpu.decode.idleCycles                   540276                       # Number of cycles decode is idle (Cycle)
system.cpu.decode.blockedCycles               6074095                       # Number of cycles decode is blocked (Cycle)
system.cpu.decode.runCycles                    948498                       # Number of cycles decode is running (Cycle)
system.cpu.decode.unblockCycles                665405                       # Number of cycles decode is unblocking (Cycle)
system.cpu.decode.squashCycles                  16325                       # Number of cycles decode is squashing (Cycle)
system.cpu.decode.branchResolved               470329                       # Number of times decode resolved a branch (Count)
system.cpu.decode.branchMispred                   880                       # Number of times decode detected a branch misprediction (Count)
system.cpu.decode.decodedInsts               11766745                       # Number of instructions handled by decode (Count)
system.cpu.decode.squashedInsts                  3045                       # Number of squashed instructions handled by decode (Count)
system.cpu.fetch.icacheStallCycles            1038615                       # Number of cycles fetch is stalled on an Icache miss (Cycle)
system.cpu.fetch.insts                       10354905                       # Number of instructions fetch has processed (Count)
system.cpu.fetch.branches                     1242679                       # Number of branches that fetch encountered (Count)
system.cpu.fetch.predictedBranches             512383                       # Number of branches that fetch has predicted taken (Count)
system.cpu.fetch.cycles                       7182844                       # Number of cycles fetch has run and was not squashing or blocked (Cycle)
system.cpu.fetch.squashCycles                   34358                       # Number of cycles fetch has spent squashing (Cycle)
system.cpu.fetch.miscStallCycles                  790                       # Number of cycles fetch has spent waiting on interrupts, or bad addresses, or out of MSHRs (Cycle)
system.cpu.fetch.pendingTrapStallCycles          5130                       # Number of stall cycles due to pending traps (Cycle)
system.cpu.fetch.icacheWaitRetryStallCycles           41                       # Number of stall cycles due to full MSHR (Cycle)
system.cpu.fetch.cacheLines                    989629                       # Number of cache lines fetched (Count)
system.cpu.fetch.icacheSquashes                  4933                       # Number of outstanding Icache misses that were squashed (Count)
system.cpu.fetch.nisnDist::samples            8244599                       # Number of instructions fetched each cycle (Total) (Count)
system.cpu.fetch.nisnDist::mean              1.453328                       # Number of instructions fetched each cycle (Total) (Count)
system.cpu.fetch.nisnDist::stdev             2.727004                       # Number of instructions fetched each cycle (Total) (Count)
system.cpu.fetch.nisnDist::underflows               0      0.00%      0.00% # Number of instructions fetched each cycle (Total) (Count)
system.cpu.fetch.nisnDist::0                  6042114     73.29%     73.29% # Number of instructions fetched each cycle (Total) (Count)
system.cpu.fetch.nisnDist::1                   194064      2.35%     75.64% # Number of instructions fetched each cycle (Total) (Count)
system.cpu.fetch.nisnDist::2                   170797      2.07%     77.71% # Number of instructions fetched each cycle (Total) (Count)
system.cpu.fetch.nisnDist::3                   178562      2.17%     79.88% # Number of instructions fetched each cycle (Total) (Count)
system.cpu.fetch.nisnDist::4                   270969      3.29%     83.16% # Number of instructions fetched each cycle (Total) (Count)
system.cpu.fetch.nisnDist::5                   342948      4.16%     87.32% # Number of instructions fetched each cycle (Total) (Count)
system.cpu.fetch.nisnDist::6                    88860      1.08%     88.40% # Number of instructions fetched each cycle (Total) (Count)
system.cpu.fetch.nisnDist::7                    71296      0.86%     89.27% # Number of instructions fetched each cycle (Total) (Count)
system.cpu.fetch.nisnDist::8                   884989     10.73%    100.00% # Number of instructions fetched each cycle (Total) (Count)
system.cpu.fetch.nisnDist::overflows                0      0.00%    100.00% # Number of instructions fetched each cycle (Total) (Count)
system.cpu.fetch.nisnDist::min_value                0                       # Number of instructions fetched each cycle (Total) (Count)
system.cpu.fetch.nisnDist::max_value                8                       # Number of instructions fetched each cycle (Total) (Count)
system.cpu.fetch.nisnDist::total              8244599                       # Number of instructions fetched each cycle (Total) (Count)
system.cpu.fetch.branchRate                  0.148077                       # Number of branch fetches per cycle (Ratio)
system.cpu.fetch.rate                        1.233887                       # Number of inst fetches per cycle ((Count/Cycle))
system.cpu.icache.demandHits::cpu.inst         986863                       # number of demand (read+write) hits (Count)
system.cpu.icache.demandHits::total            986863                       # number of demand (read+write) hits (Count)
system.cpu.icache.overallHits::cpu.inst        986863                       # number of overall hits (Count)
system.cpu.icache.overallHits::total           986863                       # number of overall hits (Count)
system.cpu.icache.demandMisses::cpu.inst         2766                       # number of demand (read+write) misses (Count)
system.cpu.icache.demandMisses::total            2766                       # number of demand (read+write) misses (Count)
system.cpu.icache.overallMisses::cpu.inst         2766                       # number of overall misses (Count)
system.cpu.icache.overallMisses::total           2766                       # number of overall misses (Count)
system.cpu.icache.demandMissLatency::cpu.inst    185359498                       # number of demand (read+write) miss ticks (Tick)
system.cpu.icache.demandMissLatency::total    185359498                       # number of demand (read+write) miss ticks (Tick)
system.cpu.icache.overallMissLatency::cpu.inst    185359498                       # number of overall miss ticks (Tick)
system.cpu.icache.overallMissLatency::total    185359498                       # number of overall miss ticks (Tick)
system.cpu.icache.demandAccesses::cpu.inst       989629                       # number of demand (read+write) accesses (Count)
system.cpu.icache.demandAccesses::total        989629                       # number of demand (read+write) accesses (Count)
system.cpu.icache.overallAccesses::cpu.inst       989629                       # number of overall (read+write) accesses (Count)
system.cpu.icache.overallAccesses::total       989629                       # number of overall (read+write) accesses (Count)
system.cpu.icache.demandMissRate::cpu.inst     0.002795                       # miss rate for demand accesses (Ratio)
system.cpu.icache.demandMissRate::total      0.002795                       # miss rate for demand accesses (Ratio)
system.cpu.icache.overallMissRate::cpu.inst     0.002795                       # miss rate for overall accesses (Ratio)
system.cpu.icache.overallMissRate::total     0.002795                       # miss rate for overall accesses (Ratio)
system.cpu.icache.demandAvgMissLatency::cpu.inst 67013.556761                       # average overall miss latency in ticks ((Tick/Count))
system.cpu.icache.demandAvgMissLatency::total 67013.556761                       # average overall miss latency in ticks ((Tick/Count))
system.cpu.icache.overallAvgMissLatency::cpu.inst 67013.556761                       # average overall miss latency ((Tick/Count))
system.cpu.icache.overallAvgMissLatency::total 67013.556761                       # average overall miss latency ((Tick/Count))
system.cpu.icache.blockedCycles::no_mshrs         1341                       # number of cycles access was blocked (Cycle)
system.cpu.icache.blockedCycles::no_targets            0                       # number of cycles access was blocked (Cycle)
system.cpu.icache.blockedCauses::no_mshrs           14                       # number of times access was blocked (Count)
system.cpu.icache.blockedCauses::no_targets            0                       # number of times access was blocked (Count)
system.cpu.icache.avgBlocked::no_mshrs      95.785714                       # average number of cycles each access was blocked ((Cycle/Count))
system.cpu.icache.avgBlocked::no_targets          nan                       # average number of cycles each access was blocked ((Cycle/Count))
system.cpu.icache.writebacks::writebacks         1897                       # number of writebacks (Count)
system.cpu.icache.writebacks::total              1897                       # number of writebacks (Count)
system.cpu.icache.demandMshrHits::cpu.inst          612                       # number of demand (read+write) MSHR hits (Count)
system.cpu.icache.demandMshrHits::total           612                       # number of demand (read+write) MSHR hits (Count)
system.cpu.icache.overallMshrHits::cpu.inst          612                       # number of overall MSHR hits (Count)
system.cpu.icache.overallMshrHits::total          612                       # number of overall MSHR hits (Count)
system.cpu.icache.demandMshrMisses::cpu.inst         2154                       # number of demand (read+write) MSHR misses (Count)
system.cpu.icache.demandMshrMisses::total         2154                       # number of demand (read+write) MSHR misses (Count)
system.cpu.icache.overallMshrMisses::cpu.inst         2154                       # number of overall MSHR misses (Count)
system.cpu.icache.overallMshrMisses::total         2154                       # number of overall MSHR misses (Count)
system.cpu.icache.demandMshrMissLatency::cpu.inst    146705500                       # number of demand (read+write) MSHR miss ticks (Tick)
system.cpu.icache.demandMshrMissLatency::total    146705500                       # number of demand (read+write) MSHR miss ticks (Tick)
system.cpu.icache.overallMshrMissLatency::cpu.inst    146705500                       # number of overall MSHR miss ticks (Tick)
system.cpu.icache.overallMshrMissLatency::total    146705500                       # number of overall MSHR miss ticks (Tick)
system.cpu.icache.demandMshrMissRate::cpu.inst     0.002177                       # mshr miss ratio for demand accesses (Ratio)
system.cpu.icache.demandMshrMissRate::total     0.002177                       # mshr miss ratio for demand accesses (Ratio)
system.cpu.icache.overallMshrMissRate::cpu.inst     0.002177                       # mshr miss ratio for overall accesses (Ratio)
system.cpu.icache.overallMshrMissRate::total     0.002177                       # mshr miss ratio for overall accesses (Ratio)
system.cpu.icache.demandAvgMshrMissLatency::cpu.inst 68108.402971                       # average overall mshr miss latency ((Tick/Count))
system.cpu.icache.demandAvgMshrMissLatency::total 68108.402971                       # average overall mshr miss latency ((Tick/Count))
system.cpu.icache.overallAvgMshrMissLatency::cpu.inst 68108.402971                       # average overall mshr miss latency ((Tick/Count))
system.cpu.icache.overallAvgMshrMissLatency::total 68108.402971                       # average overall mshr miss latency ((Tick/Count))
system.cpu.icache.replacements                   1897                       # number of replacements (Count)
system.cpu.icache.ReadReq.hits::cpu.inst       986863                       # number of ReadReq hits (Count)
system.cpu.icache.ReadReq.hits::total          986863                       # number of ReadReq hits (Count)
system.cpu.icache.ReadReq.misses::cpu.inst         2766                       # number of ReadReq misses (Count)
system.cpu.icache.ReadReq.misses::total          2766                       # number of ReadReq misses (Count)
system.cpu.icache.ReadReq.missLatency::cpu.inst    185359498                       # number of ReadReq miss ticks (Tick)
system.cpu.icache.ReadReq.missLatency::total    185359498                       # number of ReadReq miss ticks (Tick)
system.cpu.icache.ReadReq.accesses::cpu.inst       989629                       # number of ReadReq accesses(hits+misses) (Count)
system.cpu.icache.ReadReq.accesses::total       989629                       # number of ReadReq accesses(hits+misses) (Count)
system.cpu.icache.ReadReq.missRate::cpu.inst     0.002795                       # miss rate for ReadReq accesses (Ratio)
system.cpu.icache.ReadReq.missRate::total     0.002795                       # miss rate for ReadReq accesses (Ratio)
system.cpu.icache.ReadReq.avgMissLatency::cpu.inst 67013.556761                       # average ReadReq miss latency ((Tick/Count))
system.cpu.icache.ReadReq.avgMissLatency::total 67013.556761                       # average ReadReq miss latency ((Tick/Count))
system.cpu.icache.ReadReq.mshrHits::cpu.inst          612                       # number of ReadReq MSHR hits (Count)
system.cpu.icache.ReadReq.mshrHits::total          612                       # number of ReadReq MSHR hits (Count)
system.cpu.icache.ReadReq.mshrMisses::cpu.inst         2154                       # number of ReadReq MSHR misses (Count)
system.cpu.icache.ReadReq.mshrMisses::total         2154                       # number of ReadReq MSHR misses (Count)
system.cpu.icache.ReadReq.mshrMissLatency::cpu.inst    146705500                       # number of ReadReq MSHR miss ticks (Tick)
system.cpu.icache.ReadReq.mshrMissLatency::total    146705500                       # number of ReadReq MSHR miss ticks (Tick)
system.cpu.icache.ReadReq.mshrMissRate::cpu.inst     0.002177                       # mshr miss rate for ReadReq accesses (Ratio)
system.cpu.icache.ReadReq.mshrMissRate::total     0.002177                       # mshr miss rate for ReadReq accesses (Ratio)
system.cpu.icache.ReadReq.avgMshrMissLatency::cpu.inst 68108.402971                       # average ReadReq mshr miss latency ((Tick/Count))
system.cpu.icache.ReadReq.avgMshrMissLatency::total 68108.402971                       # average ReadReq mshr miss latency ((Tick/Count))
system.cpu.icache.power_state.pwrStateResidencyTicks::UNDEFINED   4196051000                       # Cumulative time (in ticks) in various power states (Tick)
system.cpu.icache.tags.tagsInUse           255.059207                       # Average ticks per tags in use ((Tick/Count))
system.cpu.icache.tags.totalRefs               989016                       # Total number of references to valid blocks. (Count)
system.cpu.icache.tags.sampledRefs               2153                       # Sample count of references to valid blocks. (Count)
system.cpu.icache.tags.avgRefs             459.366465                       # Average number of references to valid blocks. ((Count/Count))
system.cpu.icache.tags.warmupTick               87500                       # The tick when the warmup percentage was hit. (Tick)
system.cpu.icache.tags.occupancies::cpu.inst   255.059207                       # Average occupied blocks per tick, per requestor ((Count/Tick))
system.cpu.icache.tags.avgOccs::cpu.inst     0.996325                       # Average percentage of cache occupancy ((Ratio/Tick))
system.cpu.icache.tags.avgOccs::total        0.996325                       # Average percentage of cache occupancy ((Ratio/Tick))
system.cpu.icache.tags.occupanciesTaskId::1024          256                       # Occupied blocks per task id (Count)
system.cpu.icache.tags.ageTaskId_1024::0           83                       # Occupied blocks per task id, per block age (Count)
system.cpu.icache.tags.ageTaskId_1024::1          106                       # Occupied blocks per task id, per block age (Count)
system.cpu.icache.tags.ageTaskId_1024::3           67                       # Occupied blocks per task id, per block age (Count)
system.cpu.icache.tags.ratioOccsTaskId::1024            1                       # Ratio of occupied blocks and all blocks, per task id (Ratio)
system.cpu.icache.tags.tagAccesses            3960669                       # Number of tag accesses (Count)
system.cpu.icache.tags.dataAccesses           3960669                       # Number of data accesses (Count)
system.cpu.icache.tags.power_state.pwrStateResidencyTicks::UNDEFINED   4196051000                       # Cumulative time (in ticks) in various power states (Tick)
system.cpu.iew.idleCycles                           0                       # Number of cycles IEW is idle (Cycle)
system.cpu.iew.squashCycles                     16325                       # Number of cycles IEW is squashing (Cycle)
system.cpu.iew.blockCycles                    3867168                       # Number of cycles IEW is blocking (Cycle)
system.cpu.iew.unblockCycles                   251039                       # Number of cycles IEW is unblocking (Cycle)
system.cpu.iew.dispatchedInsts               11622323                       # Number of instructions dispatched to IQ (Count)
system.cpu.iew.dispSquashedInsts                 2711                       # Number of squashed instructions skipped by dispatch (Count)
system.cpu.iew.dispLoadInsts                  1738092                       # Number of dispatched load instructions (Count)
system.cpu.iew.dispStoreInsts                  448966                       # Number of dispatched store instructions (Count)
system.cpu.iew.dispNonSpecInsts                   401                       # Number of dispatched non-speculative instructions (Count)
system.cpu.iew.iqFullEvents                    176440                       # Number of times the IQ has become full, causing a stall (Count)
system.cpu.iew.lsqFullEvents                    26582                       # Number of times the LSQ has become full, causing a stall (Count)
system.cpu.iew.memOrderViolationEvents             80                       # Number of memory order violations (Count)
system.cpu.iew.predictedTakenIncorrect           8312                       # Number of branches that were predicted taken incorrectly (Count)
system.cpu.iew.predictedNotTakenIncorrect         9993                       # Number of branches that were predicted not taken incorrectly (Count)
system.cpu.iew.branchMispredicts                18305                       # Number of branch mispredicts detected at execute (Count)
system.cpu.iew.instsToCommit                 11328655                       # Cumulative count of insts sent to commit (Count)
system.cpu.iew.writebackCount                11318422                       # Cumulative count of insts written-back (Count)
system.cpu.iew.producerInst                   8657089                       # Number of instructions producing a value (Count)
system.cpu.iew.consumerInst                  14629178                       # Number of instructions consuming a value (Count)
system.cpu.iew.wbRate                        1.348699                       # Insts written-back per cycle ((Count/Cycle))
system.cpu.iew.wbFanout                      0.591769                       # Average fanout of values written-back ((Count/Count))
system.cpu.lsq0.forwLoads                      222432                       # Number of loads that had data forwarded from stores (Count)
system.cpu.lsq0.squashedLoads                  110903                       # Number of loads squashed (Count)
system.cpu.lsq0.ignoredResponses                   39                       # Number of memory responses ignored because the instruction is squashed (Count)
system.cpu.lsq0.memOrderViolation                  80                       # Number of memory ordering violations (Count)
system.cpu.lsq0.squashedStores                  37288                       # Number of stores squashed (Count)
system.cpu.lsq0.rescheduledLoads                 9419                       # Number of loads that were rescheduled (Count)
system.cpu.lsq0.blockedByCache                   2005                       # Number of times an access to memory failed due to the cache being blocked (Count)
system.cpu.lsq0.loadToUse::samples            1627189                       # Distribution of cycle latency between the first time a load is issued and its completion (Unspecified)
system.cpu.lsq0.loadToUse::mean             11.680408                       # Distribution of cycle latency between the first time a load is issued and its completion (Unspecified)
system.cpu.lsq0.loadToUse::stdev            40.224140                       # Distribution of cycle latency between the first time a load is issued and its completion (Unspecified)
system.cpu.lsq0.loadToUse::0-9                1536036     94.40%     94.40% # Distribution of cycle latency between the first time a load is issued and its completion (Unspecified)
system.cpu.lsq0.loadToUse::10-19                 2881      0.18%     94.58% # Distribution of cycle latency between the first time a load is issued and its completion (Unspecified)
system.cpu.lsq0.loadToUse::20-29                 7003      0.43%     95.01% # Distribution of cycle latency between the first time a load is issued and its completion (Unspecified)
system.cpu.lsq0.loadToUse::30-39                 1160      0.07%     95.08% # Distribution of cycle latency between the first time a load is issued and its completion (Unspecified)
system.cpu.lsq0.loadToUse::40-49                  868      0.05%     95.13% # Distribution of cycle latency between the first time a load is issued and its completion (Unspecified)
[...]
system.mem_ctrls.dram.perBankWrBursts::10         1036                       # Per bank write bursts (Count)
system.mem_ctrls.dram.perBankWrBursts::11         1296                       # Per bank write bursts (Count)
system.mem_ctrls.dram.perBankWrBursts::12         1072                       # Per bank write bursts (Count)
system.mem_ctrls.dram.perBankWrBursts::13         1160                       # Per bank write bursts (Count)
system.mem_ctrls.dram.perBankWrBursts::14         1041                       # Per bank write bursts (Count)
system.mem_ctrls.dram.perBankWrBursts::15          541                       # Per bank write bursts (Count)
system.mem_ctrls.dram.totQLat               429397250                       # Total ticks spent queuing (Tick)
system.mem_ctrls.dram.totBusLat             256295000                       # Total ticks spent in databus transfers (Tick)
system.mem_ctrls.dram.totMemAccLat         1390503500                       # Total ticks spent from burst creation until serviced by the DRAM (Tick)
system.mem_ctrls.dram.avgQLat                 8377.01                       # Average queueing delay per DRAM burst ((Tick/Count))
system.mem_ctrls.dram.avgBusLat               5000.00                       # Average bus latency per DRAM burst ((Tick/Count))
system.mem_ctrls.dram.avgMemAccLat           27127.01                       # Average memory access latency per DRAM burst ((Tick/Count))
system.mem_ctrls.dram.readRowHits               44176                       # Number of row buffer hits during reads (Count)
system.mem_ctrls.dram.writeRowHits              12309                       # Number of row buffer hits during writes (Count)
system.mem_ctrls.dram.readRowHitRate            86.18                       # Row buffer hit rate for reads (Ratio)
system.mem_ctrls.dram.writeRowHitRate           88.96                       # Row buffer hit rate for writes (Ratio)
system.mem_ctrls.dram.bytesPerActivate::samples         8596                       # Bytes accessed per row activation (Byte)
system.mem_ctrls.dram.bytesPerActivate::mean   484.199162                       # Bytes accessed per row activation (Byte)
system.mem_ctrls.dram.bytesPerActivate::gmean   282.648381                       # Bytes accessed per row activation (Byte)
system.mem_ctrls.dram.bytesPerActivate::stdev   411.795856                       # Bytes accessed per row activation (Byte)
system.mem_ctrls.dram.bytesPerActivate::0-127         2276     26.48%     26.48% # Bytes accessed per row activation (Byte)
system.mem_ctrls.dram.bytesPerActivate::128-255         1665     19.37%     45.85% # Bytes accessed per row activation (Byte)
system.mem_ctrls.dram.bytesPerActivate::256-383          598      6.96%     52.80% # Bytes accessed per row activation (Byte)
system.mem_ctrls.dram.bytesPerActivate::384-511          356      4.14%     56.95% # Bytes accessed per row activation (Byte)
system.mem_ctrls.dram.bytesPerActivate::512-639          320      3.72%     60.67% # Bytes accessed per row activation (Byte)
system.mem_ctrls.dram.bytesPerActivate::640-767          266      3.09%     63.76% # Bytes accessed per row activation (Byte)
system.mem_ctrls.dram.bytesPerActivate::768-895          328      3.82%     67.58% # Bytes accessed per row activation (Byte)
system.mem_ctrls.dram.bytesPerActivate::896-1023          173      2.01%     69.59% # Bytes accessed per row activation (Byte)
system.mem_ctrls.dram.bytesPerActivate::1024-1151         2614     30.41%    100.00% # Bytes accessed per row activation (Byte)
system.mem_ctrls.dram.bytesPerActivate::total         8596                       # Bytes accessed per row activation (Byte)
system.mem_ctrls.dram.bytesRead               3280576                       # Total bytes read (Byte)
system.mem_ctrls.dram.bytesWritten             885568                       # Total bytes written (Byte)
system.mem_ctrls.dram.avgRdBW              781.824625                       # Average DRAM read bandwidth in MiBytes/s ((Byte/Second))
system.mem_ctrls.dram.avgWrBW              211.047959                       # Average DRAM write bandwidth in MiBytes/s ((Byte/Second))
system.mem_ctrls.dram.peakBW                 12800.00                       # Theoretical peak bandwidth in MiByte/s ((Byte/Second))
system.mem_ctrls.dram.busUtil                    7.76                       # Data bus utilization in percentage (Ratio)
system.mem_ctrls.dram.busUtilRead                6.11                       # Data bus utilization in percentage for reads (Ratio)
system.mem_ctrls.dram.busUtilWrite               1.65                       # Data bus utilization in percentage for writes (Ratio)
system.mem_ctrls.dram.pageHitRate               86.77                       # Row buffer hit rate, read and write combined (Ratio)
system.mem_ctrls.dram.power_state.pwrStateResidencyTicks::UNDEFINED   4196051000                       # Cumulative time (in ticks) in various power states (Tick)
system.mem_ctrls.dram.rank0.actEnergy        29416800                       # Energy for activate commands per rank (pJ) (Joule)
system.mem_ctrls.dram.rank0.preEnergy        15605040                       # Energy for precharge commands per rank (pJ) (Joule)
system.mem_ctrls.dram.rank0.readEnergy      165055380                       # Energy for read commands per rank (pJ) (Joule)
system.mem_ctrls.dram.rank0.writeEnergy      32155200                       # Energy for write commands per rank (pJ) (Joule)
system.mem_ctrls.dram.rank0.refreshEnergy 330676320.000000                       # Energy for refresh commands per rank (pJ) (Joule)
system.mem_ctrls.dram.rank0.actBackEnergy   1328925360                       # Energy for active background per rank (pJ) (Joule)
system.mem_ctrls.dram.rank0.preBackEnergy    492188640                       # Energy for precharge background per rank (pJ) (Joule)
system.mem_ctrls.dram.rank0.actPowerDownEnergy            0                       # Energy for active power-down per rank (pJ) (Joule)
system.mem_ctrls.dram.rank0.prePowerDownEnergy            0                       # Energy for precharge power-down per rank (pJ) (Joule)
system.mem_ctrls.dram.rank0.selfRefreshEnergy            0                       # Energy for self refresh per rank (pJ) (Joule)
system.mem_ctrls.dram.rank0.totalEnergy    2394022740                       # Total energy per rank (pJ) (Joule)
system.mem_ctrls.dram.rank0.averagePower   570.541859                       # Core power per rank (mW) (Watt)
system.mem_ctrls.dram.rank0.totalIdleTime            0                       # Total Idle time Per DRAM Rank (Tick)
system.mem_ctrls.dram.rank0.pwrStateTime::IDLE   1264639250                       # Time in different power states (Tick)
system.mem_ctrls.dram.rank0.pwrStateTime::REF    139880000                       # Time in different power states (Tick)
system.mem_ctrls.dram.rank0.pwrStateTime::SREF            0                       # Time in different power states (Tick)
system.mem_ctrls.dram.rank0.pwrStateTime::PRE_PDN            0                       # Time in different power states (Tick)
system.mem_ctrls.dram.rank0.pwrStateTime::ACT   2791531750                       # Time in different power states (Tick)
system.mem_ctrls.dram.rank0.pwrStateTime::ACT_PDN            0                       # Time in different power states (Tick)
system.mem_ctrls.dram.rank1.actEnergy        32065740                       # Energy for activate commands per rank (pJ) (Joule)
system.mem_ctrls.dram.rank1.preEnergy        17016780                       # Energy for precharge commands per rank (pJ) (Joule)
system.mem_ctrls.dram.rank1.readEnergy      200933880                       # Energy for read commands per rank (pJ) (Joule)
system.mem_ctrls.dram.rank1.writeEnergy      40073940                       # Energy for write commands per rank (pJ) (Joule)
system.mem_ctrls.dram.rank1.refreshEnergy 330676320.000000                       # Energy for refresh commands per rank (pJ) (Joule)
system.mem_ctrls.dram.rank1.actBackEnergy   1510739400                       # Energy for active background per rank (pJ) (Joule)
system.mem_ctrls.dram.rank1.preBackEnergy    339082080                       # Energy for precharge background per rank (pJ) (Joule)
system.mem_ctrls.dram.rank1.actPowerDownEnergy            0                       # Energy for active power-down per rank (pJ) (Joule)
system.mem_ctrls.dram.rank1.prePowerDownEnergy            0                       # Energy for precharge power-down per rank (pJ) (Joule)
system.mem_ctrls.dram.rank1.selfRefreshEnergy            0                       # Energy for self refresh per rank (pJ) (Joule)
system.mem_ctrls.dram.rank1.totalEnergy    2470588140                       # Total energy per rank (pJ) (Joule)
system.mem_ctrls.dram.rank1.averagePower   588.788873                       # Core power per rank (mW) (Watt)
system.mem_ctrls.dram.rank1.totalIdleTime            0                       # Total Idle time Per DRAM Rank (Tick)
system.mem_ctrls.dram.rank1.pwrStateTime::IDLE    863633250                       # Time in different power states (Tick)
system.mem_ctrls.dram.rank1.pwrStateTime::REF    139880000                       # Time in different power states (Tick)
system.mem_ctrls.dram.rank1.pwrStateTime::SREF            0                       # Time in different power states (Tick)
system.mem_ctrls.dram.rank1.pwrStateTime::PRE_PDN            0                       # Time in different power states (Tick)
system.mem_ctrls.dram.rank1.pwrStateTime::ACT   3192537750                       # Time in different power states (Tick)
system.mem_ctrls.dram.rank1.pwrStateTime::ACT_PDN            0                       # Time in different power states (Tick)
system.mem_ctrls.power_state.pwrStateResidencyTicks::UNDEFINED   4196051000                       # Cumulative time (in ticks) in various power states (Tick)
system.membus.transDist::ReadResp               49792                       # Transaction distribution (Count)
system.membus.transDist::WritebackDirty         13862                       # Transaction distribution (Count)
system.membus.transDist::CleanEvict             33379                       # Transaction distribution (Count)
system.membus.transDist::ReadExReq               1485                       # Transaction distribution (Count)
system.membus.transDist::ReadExResp              1485                       # Transaction distribution (Count)
system.membus.transDist::ReadSharedReq          49792                       # Transaction distribution (Count)
system.membus.transDist::InvalidateReq            140                       # Transaction distribution (Count)
system.membus.pktCount_system.l2.mem_side_port::system.mem_ctrls.port       149935                       # Packet count per connected requestor and responder (Count)
system.membus.pktCount::total                  149935                       # Packet count per connected requestor and responder (Count)
system.membus.pktSize_system.l2.mem_side_port::system.mem_ctrls.port      4168896                       # Cumulative packet size per connected requestor and responder (Byte)
system.membus.pktSize::total                  4168896                       # Cumulative packet size per connected requestor and responder (Byte)
system.membus.snoops                                0                       # Total snoops (Count)
system.membus.snoopTraffic                          0                       # Total snoop traffic (Byte)
system.membus.snoopFanout::samples              51417                       # Request fanout histogram (Count)
system.membus.snoopFanout::mean                     0                       # Request fanout histogram (Count)
system.membus.snoopFanout::stdev                    0                       # Request fanout histogram (Count)
system.membus.snoopFanout::underflows               0      0.00%      0.00% # Request fanout histogram (Count)
system.membus.snoopFanout::0                    51417    100.00%    100.00% # Request fanout histogram (Count)
system.membus.snoopFanout::1                        0      0.00%    100.00% # Request fanout histogram (Count)
system.membus.snoopFanout::overflows                0      0.00%    100.00% # Request fanout histogram (Count)
system.membus.snoopFanout::min_value                0                       # Request fanout histogram (Count)
system.membus.snoopFanout::max_value                0                       # Request fanout histogram (Count)
system.membus.snoopFanout::total                51417                       # Request fanout histogram (Count)
system.membus.power_state.pwrStateResidencyTicks::UNDEFINED   4196051000                       # Cumulative time (in ticks) in various power states (Tick)
system.membus.reqLayer0.occupancy           169143500                       # Layer occupancy (ticks) (Tick)
system.membus.reqLayer0.utilization               0.0                       # Layer utilization (Ratio)
system.membus.respLayer1.occupancy          271519250                       # Layer occupancy (ticks) (Tick)
system.membus.respLayer1.utilization              0.1                       # Layer utilization (Ratio)
system.membus.snoop_filter.totRequests          98658                       # Total number of requests made to the snoop filter. (Count)
system.membus.snoop_filter.hitSingleRequests        47241                       # Number of requests hitting in the snoop filter with a single holder of the requested data. (Count)
system.membus.snoop_filter.hitMultiRequests            0                       # Number of requests hitting in the snoop filter with multiple (>1) holders of the requested data. (Count)
system.membus.snoop_filter.totSnoops                0                       # Total number of snoops made to the snoop filter. (Count)
system.membus.snoop_filter.hitSingleSnoops            0                       # Number of snoops hitting in the snoop filter with a single holder of the requested data. (Count)
system.membus.snoop_filter.hitMultiSnoops            0                       # Number of snoops hitting in the snoop filter with multiple (>1) holders of the requested data. (Count)
system.tol2bus.transDist::ReadResp              54234                       # Transaction distribution (Count)
system.tol2bus.transDist::WritebackDirty        29778                       # Transaction distribution (Count)
system.tol2bus.transDist::WritebackClean         1897                       # Transaction distribution (Count)
system.tol2bus.transDist::CleanEvict            71482                       # Transaction distribution (Count)
system.tol2bus.transDist::ReadExReq              2121                       # Transaction distribution (Count)
system.tol2bus.transDist::ReadExResp             2121                       # Transaction distribution (Count)
system.tol2bus.transDist::ReadCleanReq           2154                       # Transaction distribution (Count)
system.tol2bus.transDist::ReadSharedReq         52081                       # Transaction distribution (Count)
system.tol2bus.transDist::InvalidateReq           141                       # Transaction distribution (Count)
system.tol2bus.transDist::InvalidateResp          141                       # Transaction distribution (Count)
system.tol2bus.pktCount_system.cpu.icache.mem_side_port::system.l2.cpu_side_port         6204                       # Packet count per connected requestor and responder (Count)
system.tol2bus.pktCount_system.cpu.dcache.mem_side_port::system.l2.cpu_side_port       162005                       # Packet count per connected requestor and responder (Count)
system.tol2bus.pktCount::total                 168209                       # Packet count per connected requestor and responder (Count)
system.tol2bus.pktSize_system.cpu.icache.mem_side_port::system.l2.cpu_side_port       259200                       # Cumulative packet size per connected requestor and responder (Byte)
system.tol2bus.pktSize_system.cpu.dcache.mem_side_port::system.l2.cpu_side_port      4487488                       # Cumulative packet size per connected requestor and responder (Byte)
system.tol2bus.pktSize::total                 4746688                       # Cumulative packet size per connected requestor and responder (Byte)
system.tol2bus.snoops                           47941                       # Total snoops (Count)
system.tol2bus.snoopTraffic                    887232                       # Total snoop traffic (Byte)
system.tol2bus.snoopFanout::samples            104438                       # Request fanout histogram (Count)
system.tol2bus.snoopFanout::mean             0.008282                       # Request fanout histogram (Count)
system.tol2bus.snoopFanout::stdev            0.090631                       # Request fanout histogram (Count)
system.tol2bus.snoopFanout::underflows              0      0.00%      0.00% # Request fanout histogram (Count)
system.tol2bus.snoopFanout::0                  103573     99.17%     99.17% # Request fanout histogram (Count)
system.tol2bus.snoopFanout::1                     865      0.83%    100.00% # Request fanout histogram (Count)
system.tol2bus.snoopFanout::2                       0      0.00%    100.00% # Request fanout histogram (Count)
system.tol2bus.snoopFanout::overflows               0      0.00%    100.00% # Request fanout histogram (Count)
system.tol2bus.snoopFanout::min_value               0                       # Request fanout histogram (Count)
system.tol2bus.snoopFanout::max_value               1                       # Request fanout histogram (Count)
system.tol2bus.snoopFanout::total              104438                       # Request fanout histogram (Count)
system.tol2bus.power_state.pwrStateResidencyTicks::UNDEFINED   4196051000                       # Cumulative time (in ticks) in various power states (Tick)
system.tol2bus.reqLayer0.occupancy           73668500                       # Layer occupancy (ticks) (Tick)
system.tol2bus.reqLayer0.utilization              0.0                       # Layer utilization (Ratio)
system.tol2bus.respLayer0.occupancy           3230498                       # Layer occupancy (ticks) (Tick)
system.tol2bus.respLayer0.utilization             0.0                       # Layer utilization (Ratio)
system.tol2bus.respLayer1.occupancy          81373500                       # Layer occupancy (ticks) (Tick)
system.tol2bus.respLayer1.utilization             0.0                       # Layer utilization (Ratio)
system.tol2bus.snoop_filter.totRequests        111713                       # Total number of requests made to the snoop filter. (Count)
system.tol2bus.snoop_filter.hitSingleRequests        55216                       # Number of requests hitting in the snoop filter with a single holder of the requested data. (Count)
system.tol2bus.snoop_filter.hitMultiRequests            1                       # Number of requests hitting in the snoop filter with multiple (>1) holders of the requested data. (Count)
system.tol2bus.snoop_filter.totSnoops             864                       # Total number of snoops made to the snoop filter. (Count)
system.tol2bus.snoop_filter.hitSingleSnoops          864                       # Number of snoops hitting in the snoop filter with a single holder of the requested data. (Count)
system.tol2bus.snoop_filter.hitMultiSnoops            0                       # Number of snoops hitting in the snoop filter with multiple (>1) holders of the requested data. (Count)
system.voltage_domain.voltage                       1                       # Voltage in Volts (Volt)
system.workload.inst.arm                            0                       # number of arm instructions executed (Count)
system.workload.inst.quiesce                        0                       # number of quiesce instructions executed (Count)

---------- End Simulation Statistics   ----------
