
---------- Begin Simulation Statistics ----------
simSeconds                                   0.043973                       # Number of seconds simulated (Second)
simTicks                                  43973090000                       # Number of ticks simulated (Tick)
finalTick                                 43973090000                       # Number of ticks from beginning of simulation (restored from checkpoints and never reset) (Tick)
simFreq                                  1000000000000                       # The number of ticks per simulated second ((Tick/Second))
hostSeconds                                    540.18                       # Real time elapsed on the host (Second)
hostTickRate                                 81403855                       # The number of ticks simulated per host second (ticks/s) ((Tick/Second))
hostMemory                                     681144                       # Number of bytes of host memory used (Byte)
simInsts                                    173753342                       # Number of instructions simulated (Count)
simOps                                      199227957                       # Number of ops (including micro ops) simulated (Count)
hostInstRate                                   321656                       # Simulator instruction rate (inst/s) ((Count/Second))
hostOpRate                                     368815                       # Simulator op (including micro ops) rate (op/s) ((Count/Second))
system.clk_domain.clock                          1000                       # Clock period in ticks (Tick)
system.cpu.numCycles                         87946181                       # Number of cpu cycles simulated (Cycle)
system.cpu.numWorkItemsStarted                      0                       # Number of work items this cpu started (Count)
system.cpu.numWorkItemsCompleted                    0                       # Number of work items this cpu completed (Count)
system.cpu.instsAdded                       200254388                       # Number of instructions added to the IQ (excludes non-spec) (Count)
system.cpu.nonSpecInstsAdded                      411                       # Number of non-speculative instructions added to the IQ (Count)
system.cpu.instsIssued                      199947303                       # Number of instructions issued (Count)
system.cpu.squashedInstsIssued                   8619                       # Number of squashed instructions issued (Count)
system.cpu.squashedInstsExamined              1026841                       # Number of squashed instructions iterated over during squash; mainly for profiling (Count)
system.cpu.squashedOperandsExamined            810342                       # Number of squashed operands that are examined and possibly removed from graph (Count)
system.cpu.squashedNonSpecRemoved                 138                       # Number of squashed non-spec instructions that were removed (Count)
system.cpu.numIssuedDist::samples            87808188                       # Number of insts issued each cycle (Count)
system.cpu.numIssuedDist::mean               2.277092                       # Number of insts issued each cycle (Count)
system.cpu.numIssuedDist::stdev              2.414038                       # Number of insts issued each cycle (Count)
system.cpu.numIssuedDist::underflows                0      0.00%      0.00% # Number of insts issued each cycle (Count)
system.cpu.numIssuedDist::0                  30124450     34.31%     34.31% # Number of insts issued each cycle (Count)
system.cpu.numIssuedDist::1                  14019856     15.97%     50.27% # Number of insts issued each cycle (Count)
system.cpu.numIssuedDist::2                  11976204     13.64%     63.91% # Number of insts issued each cycle (Count)
system.cpu.numIssuedDist::3                   5358044      6.10%     70.01% # Number of insts issued each cycle (Count)
system.cpu.numIssuedDist::4                   7650754      8.71%     78.73% # Number of insts issued each cycle (Count)
system.cpu.numIssuedDist::5                   6785905      7.73%     86.46% # Number of insts issued each cycle (Count)
system.cpu.numIssuedDist::6                   5140898      5.85%     92.31% # Number of insts issued each cycle (Count)
system.cpu.numIssuedDist::7                   3493638      3.98%     96.29% # Number of insts issued each cycle (Count)
system.cpu.numIssuedDist::8                   3258439      3.71%    100.00% # Number of insts issued each cycle (Count)
system.cpu.numIssuedDist::overflows                 0      0.00%    100.00% # Number of insts issued each cycle (Count)
system.cpu.numIssuedDist::min_value                 0                       # Number of insts issued each cycle (Count)
system.cpu.numIssuedDist::max_value                 8                       # Number of insts issued each cycle (Count)
system.cpu.numIssuedDist::total              87808188                       # Number of insts issued each cycle (Count)
system.cpu.statFuBusy::No_OpClass                   0      0.00%      0.00% # attempts to use FU when none available (Count)
system.cpu.statFuBusy::IntAlu                   24455      0.05%      0.05% # attempts to use FU when none available (Count)
system.cpu.statFuBusy::IntMult                 791710      1.58%      1.62% # attempts to use FU when none available (Count)
system.cpu.statFuBusy::IntDiv                48523961     96.59%     98.22% # attempts to use FU when none available (Count)
system.cpu.statFuBusy::FloatAdd                     0      0.00%     98.22% # attempts to use FU when none available (Count)
system.cpu.statFuBusy::FloatCmp                     0      0.00%     98.22% # attempts to use FU when none available (Count)
system.cpu.statFuBusy::FloatCvt                     0      0.00%     98.22% # attempts to use FU when none available (Count)
system.cpu.statFuBusy::FloatMult                    0      0.00%     98.22% # attempts to use FU when none available (Count)
system.cpu.statFuBusy::FloatMultAcc                 0      0.00%     98.22% # attempts to use FU when none available (Count)
system.cpu.statFuBusy::FloatDiv                     0      0.00%     98.22% # attempts to use FU when none available (Count)
system.cpu.statFuBusy::FloatMisc                    0      0.00%     98.22% # attempts to use FU when none available (Count)
system.cpu.statFuBusy::FloatSqrt                    0      0.00%     98.22% # attempts to use FU when none available (Count)
system.cpu.statFuBusy::SimdAdd                      0      0.00%     98.22% # attempts to use FU when none available (Count)
system.cpu.statFuBusy::SimdAddAcc                   0      0.00%     98.22% # attempts to use FU when none available (Count)
system.cpu.statFuBusy::SimdAlu                     17      0.00%     98.22% # attempts to use FU when none available (Count)
system.cpu.statFuBusy::SimdCmp                     15      0.00%     98.22% # attempts to use FU when none available (Count)
system.cpu.statFuBusy::SimdCvt                      0      0.00%     98.22% # attempts to use FU when none available (Count)
system.cpu.statFuBusy::SimdMisc                     0      0.00%     98.22% # attempts to use FU when none available (Count)
system.cpu.statFuBusy::SimdMult                    52      0.00%     98.22% # attempts to use FU when none available (Count)
system.cpu.statFuBusy::SimdMultAcc                  0      0.00%     98.22% # attempts to use FU when none available (Count)
system.cpu.statFuBusy::SimdShift                    0      0.00%     98.22% # attempts to use FU when none available (Count)
system.cpu.statFuBusy::SimdShiftAcc                 0      0.00%     98.22% # attempts to use FU when none available (Count)
system.cpu.statFuBusy::SimdDiv                      0      0.00%     98.22% # attempts to use FU when none available (Count)
system.cpu.statFuBusy::SimdSqrt                     0      0.00%     98.22% # attempts to use FU when none available (Count)
system.cpu.statFuBusy::SimdFloatAdd                 0      0.00%     98.22% # attempts to use FU when none available (Count)
system.cpu.statFuBusy::SimdFloatAlu                 0      0.00%     98.22% # attempts to use FU when none available (Count)
system.cpu.statFuBusy::SimdFloatCmp                 0      0.00%     98.22% # attempts to use FU when none available (Count)
system.cpu.statFuBusy::SimdFloatCvt                 0      0.00%     98.22% # attempts to use FU when none available (Count)
system.cpu.statFuBusy::SimdFloatDiv                 0      0.00%     98.22% # attempts to use FU when none available (Count)
system.cpu.statFuBusy::SimdFloatMisc                0      0.00%     98.22% # attempts to use FU when none available (Count)
system.cpu.statFuBusy::SimdFloatMult                0      0.00%     98.22% # attempts to use FU when none available (Count)
system.cpu.statFuBusy::SimdFloatMultAcc             0      0.00%     98.22% # attempts to use FU when none available (Count)
system.cpu.statFuBusy::SimdFloatSqrt                0      0.00%     98.22% # attempts to use FU when none available (Count)
system.cpu.statFuBusy::SimdReduceAdd                0      0.00%     98.22% # attempts to use FU when none available (Count)
system.cpu.statFuBusy::SimdReduceAlu                0      0.00%     98.22% # attempts to use FU when none available (Count)
system.cpu.statFuBusy::SimdReduceCmp                0      0.00%     98.22% # attempts to use FU when none available (Count)
system.cpu.statFuBusy::SimdFloatReduceAdd            0      0.00%     98.22% # attempts to use FU when none available (Count)
system.cpu.statFuBusy::SimdFloatReduceCmp            0      0.00%     98.22% # attempts to use FU when none available (Count)
system.cpu.statFuBusy::SimdAes                      0      0.00%     98.22% # attempts to use FU when none available (Count)
system.cpu.statFuBusy::SimdAesMix                   0      0.00%     98.22% # attempts to use FU when none available (Count)
system.cpu.statFuBusy::SimdSha1Hash                 0      0.00%     98.22% # attempts to use FU when none available (Count)
system.cpu.statFuBusy::SimdSha1Hash2                0      0.00%     98.22% # attempts to use FU when none available (Count)
system.cpu.statFuBusy::SimdSha256Hash               0      0.00%     98.22% # attempts to use FU when none available (Count)
system.cpu.statFuBusy::SimdSha256Hash2              0      0.00%     98.22% # attempts to use FU when none available (Count)
system.cpu.statFuBusy::SimdShaSigma2                0      0.00%     98.22% # attempts to use FU when none available (Count)
system.cpu.statFuBusy::SimdShaSigma3                0      0.00%     98.22% # attempts to use FU when none available (Count)
system.cpu.statFuBusy::SimdPredAlu                  0      0.00%     98.22% # attempts to use FU when none available (Count)
system.cpu.statFuBusy::MemRead                 879460      1.75%     99.97% # attempts to use FU when none available (Count)
system.cpu.statFuBusy::MemWrite                 14906      0.03%    100.00% # attempts to use FU when none available (Count)
system.cpu.statFuBusy::FloatMemRead                 0      0.00%    100.00% # attempts to use FU when none available (Count)
system.cpu.statFuBusy::FloatMemWrite                0      0.00%    100.00% # attempts to use FU when none available (Count)
system.cpu.statFuBusy::IprAccess                    0      0.00%    100.00% # attempts to use FU when none available (Count)
system.cpu.statFuBusy::InstPrefetch                 0      0.00%    100.00% # attempts to use FU when none available (Count)
system.cpu.statIssuedInstType_0::No_OpClass     10097991      5.05%      5.05% # Number of instructions issued per FU type, per thread (Count)
system.cpu.statIssuedInstType_0::IntAlu      88342070     44.18%     49.23% # Number of instructions issued per FU type, per thread (Count)
system.cpu.statIssuedInstType_0::IntMult      5942898      2.97%     52.21% # Number of instructions issued per FU type, per thread (Count)
system.cpu.statIssuedInstType_0::IntDiv       5948315      2.97%     55.18% # Number of instructions issued per FU type, per thread (Count)
system.cpu.statIssuedInstType_0::FloatAdd            0      0.00%     55.18% # Number of instructions issued per FU type, per thread (Count)
system.cpu.statIssuedInstType_0::FloatCmp            0      0.00%     55.18% # Number of instructions issued per FU type, per thread (Count)
system.cpu.statIssuedInstType_0::FloatCvt            0      0.00%     55.18% # Number of instructions issued per FU type, per thread (Count)
system.cpu.statIssuedInstType_0::FloatMult            0      0.00%     55.18% # Number of instructions issued per FU type, per thread (Count)
system.cpu.statIssuedInstType_0::FloatMultAcc            0      0.00%     55.18% # Number of instructions issued per FU type, per thread (Count)
system.cpu.statIssuedInstType_0::FloatDiv            0      0.00%     55.18% # Number of instructions issued per FU type, per thread (Count)
system.cpu.statIssuedInstType_0::FloatMisc            2      0.00%     55.18% # Number of instructions issued per FU type, per thread (Count)
system.cpu.statIssuedInstType_0::FloatSqrt            0      0.00%     55.18% # Number of instructions issued per FU type, per thread (Count)
system.cpu.statIssuedInstType_0::SimdAdd     19388147      9.70%     64.88% # Number of instructions issued per FU type, per thread (Count)
system.cpu.statIssuedInstType_0::SimdAddAcc            0      0.00%     64.88% # Number of instructions issued per FU type, per thread (Count)
system.cpu.statIssuedInstType_0::SimdAlu       803020      0.40%     65.28% # Number of instructions issued per FU type, per thread (Count)
system.cpu.statIssuedInstType_0::SimdCmp          117      0.00%     65.28% # Number of instructions issued per FU type, per thread (Count)
system.cpu.statIssuedInstType_0::SimdCvt            0      0.00%     65.28% # Number of instructions issued per FU type, per thread (Count)
system.cpu.statIssuedInstType_0::SimdMisc     19388171      9.70%     74.98% # Number of instructions issued per FU type, per thread (Count)
system.cpu.statIssuedInstType_0::SimdMult     19388052      9.70%     84.67% # Number of instructions issued per FU type, per thread (Count)
system.cpu.statIssuedInstType_0::SimdMultAcc            0      0.00%     84.67% # Number of instructions issued per FU type, per thread (Count)
system.cpu.statIssuedInstType_0::SimdShift            0      0.00%     84.67% # Number of instructions issued per FU type, per thread (Count)
system.cpu.statIssuedInstType_0::SimdShiftAcc            0      0.00%     84.67% # Number of instructions issued per FU type, per thread (Count)
system.cpu.statIssuedInstType_0::SimdDiv            0      0.00%     84.67% # Number of instructions issued per FU type, per thread (Count)
system.cpu.statIssuedInstType_0::SimdSqrt            0      0.00%     84.67% # Number of instructions issued per FU type, per thread (Count)
system.cpu.statIssuedInstType_0::SimdFloatAdd            0      0.00%     84.67% # Number of instructions issued per FU type, per thread (Count)
system.cpu.statIssuedInstType_0::SimdFloatAlu            0      0.00%     84.67% # Number of instructions issued per FU type, per thread (Count)
system.cpu.statIssuedInstType_0::SimdFloatCmp            0      0.00%     84.67% # Number of instructions issued per FU type, per thread (Count)
system.cpu.statIssuedInstType_0::SimdFloatCvt            0      0.00%     84.67% # Number of instructions issued per FU type, per thread (Count)
system.cpu.statIssuedInstType_0::SimdFloatDiv            0      0.00%     84.67% # Number of instructions issued per FU type, per thread (Count)
system.cpu.statIssuedInstType_0::SimdFloatMisc            0      0.00%     84.67% # Number of instructions issued per FU type, per thread (Count)
system.cpu.statIssuedInstType_0::SimdFloatMult            0      0.00%     84.67% # Number of instructions issued per FU type, per thread (Count)
system.cpu.statIssuedInstType_0::SimdFloatMultAcc            0      0.00%     84.67% # Number of instructions issued per FU type, per thread (Count)
system.cpu.statIssuedInstType_0::SimdFloatSqrt            0      0.00%     84.67% # Number of instructions issued per FU type, per thread (Count)
system.cpu.statIssuedInstType_0::SimdReduceAdd            0      0.00%     84.67% # Number of instructions issued per FU type, per thread (Count)
system.cpu.statIssuedInstType_0::SimdReduceAlu            0      0.00%     84.67% # Number of instructions issued per FU type, per thread (Count)
system.cpu.statIssuedInstType_0::SimdReduceCmp            0      0.00%     84.67% # Number of instructions issued per FU type, per thread (Count)
system.cpu.statIssuedInstType_0::SimdFloatReduceAdd            0      0.00%     84.67% # Number of instructions issued per FU type, per thread (Count)
system.cpu.statIssuedInstType_0::SimdFloatReduceCmp            0      0.00%     84.67% # Number of instructions issued per FU type, per thread (Count)
system.cpu.statIssuedInstType_0::SimdAes            0      0.00%     84.67% # Number of instructions issued per FU type, per thread (Count)
system.cpu.statIssuedInstType_0::SimdAesMix            0      0.00%     84.67% # Number of instructions issued per FU type, per thread (Count)
system.cpu.statIssuedInstType_0::SimdSha1Hash            0      0.00%     84.67% # Number of instructions issued per FU type, per thread (Count)
system.cpu.statIssuedInstType_0::SimdSha1Hash2            0      0.00%     84.67% # Number of instructions issued per FU type, per thread (Count)
system.cpu.statIssuedInstType_0::SimdSha256Hash            0      0.00%     84.67% # Number of instructions issued per FU type, per thread (Count)
system.cpu.statIssuedInstType_0::SimdSha256Hash2            0      0.00%     84.67% # Number of instructions issued per FU type, per thread (Count)
system.cpu.statIssuedInstType_0::SimdShaSigma2            0      0.00%     84.67% # Number of instructions issued per FU type, per thread (Count)
system.cpu.statIssuedInstType_0::SimdShaSigma3            0      0.00%     84.67% # Number of instructions issued per FU type, per thread (Count)
system.cpu.statIssuedInstType_0::SimdPredAlu            0      0.00%     84.67% # Number of instructions issued per FU type, per thread (Count)
system.cpu.statIssuedInstType_0::MemRead     25588267     12.80%     97.47% # Number of instructions issued per FU type, per thread (Count)
system.cpu.statIssuedInstType_0::MemWrite      5060253      2.53%    100.00% # Number of instructions issued per FU type, per thread (Count)
system.cpu.statIssuedInstType_0::FloatMemRead            0      0.00%    100.00% # Number of instructions issued per FU type, per thread (Count)
system.cpu.statIssuedInstType_0::FloatMemWrite            0      0.00%    100.00% # Number of instructions issued per FU type, per thread (Count)
system.cpu.statIssuedInstType_0::IprAccess            0      0.00%    100.00% # Number of instructions issued per FU type, per thread (Count)
system.cpu.statIssuedInstType_0::InstPrefetch            0      0.00%    100.00% # Number of instructions issued per FU type, per thread (Count)
system.cpu.statIssuedInstType_0::total      199947303                       # Number of instructions issued per FU type, per thread (Count)
system.cpu.issueRate                         2.273519                       # Inst issue rate ((Count/Cycle))
system.cpu.fuBusy                            50234576                       # FU busy when requested (Count)
system.cpu.fuBusyRate                        0.251239                       # FU busy rate (busy events/executed inst) ((Count/Count))
system.cpu.intInstQueueReads                358536628                       # Number of integer instruction queue reads (Count)
system.cpu.intInstQueueWrites               111822212                       # Number of integer instruction queue writes (Count)
system.cpu.intInstQueueWakeupAccesses       110560836                       # Number of integer instruction queue wakeup accesses (Count)
system.cpu.fpInstQueueReads                         0                       # Number of floating instruction queue reads (Count)
system.cpu.fpInstQueueWrites                        0                       # Number of floating instruction queue writes (Count)
system.cpu.fpInstQueueWakeupAccesses                0                       # Number of floating instruction queue wakeup accesses (Count)
system.cpu.vecInstQueueReads                179409361                       # Number of vector instruction queue reads (Count)
system.cpu.vecInstQueueWrites                89459505                       # Number of vector instruction queue writes (Count)
system.cpu.vecInstQueueWakeupAccesses        89268215                       # Number of vector instruction queue wakeup accesses (Count)
system.cpu.intAluAccesses                   160048156                       # Number of integer alu accesses (Count)
system.cpu.fpAluAccesses                            0                       # Number of floating point alu accesses (Count)
system.cpu.vecAluAccesses                    80035732                       # Number of vector alu accesses (Count)
system.cpu.numInsts                         199900643                       # Number of executed instructions (Count)
system.cpu.numLoadInsts                      25571541                       # Number of load instructions executed (Count)
system.cpu.numSquashedInsts                     46660                       # Number of squashed instructions skipped in execute (Count)
system.cpu.numSwp                                   0                       # Number of swp insts executed (Count)
system.cpu.numNop                              990422                       # Number of nop insts executed (Count)
system.cpu.numRefs                           30630239                       # Number of memory reference insts executed (Count)
system.cpu.numBranches                       13686848                       # Number of branches executed (Count)
system.cpu.numStoreInsts                      5058698                       # Number of stores executed (Count)
system.cpu.numRate                           2.272988                       # Inst execution rate ((Count/Cycle))
system.cpu.timesIdled                            1458                       # Number of times that the entire CPU went into an idle state and unscheduled itself (Count)
system.cpu.idleCycles                          137993                       # Total number of cycles that the CPU has spent unscheduled due to idling (Cycle)
system.cpu.committedInsts                   173753342                       # Number of Instructions Simulated (Count)
system.cpu.committedOps                     199227957                       # Number of Ops (including micro ops) Simulated (Count)
system.cpu.cpi                               0.506155                       # CPI: Cycles Per Instruction ((Cycle/Count))
system.cpu.totalCpi                          0.506155                       # CPI: Total CPI of All Threads ((Cycle/Count))
system.cpu.ipc                               1.975678                       # IPC: Instructions Per Cycle ((Count/Cycle))
system.cpu.totalIpc                          1.975678                       # IPC: Total IPC of All Threads ((Count/Cycle))
system.cpu.intRegfileReads                  192127015                       # Number of integer regfile reads (Count)
system.cpu.intRegfileWrites                  91922781                       # Number of integer regfile writes (Count)
system.cpu.vecRegfileReads                  209622487                       # number of vector regfile reads (Count)
system.cpu.ccRegfileReads                    58099893                       # number of cc regfile reads (Count)
system.cpu.ccRegfileWrites                   58110915                       # number of cc regfile writes (Count)
system.cpu.miscRegfileReads                 163637922                       # number of misc regfile reads (Count)
system.cpu.miscRegfileWrites                      213                       # number of misc regfile writes (Count)
system.cpu.MemDepUnit__0.insertedLoads       25578574                       # Number of loads inserted to the mem dependence unit. (Count)
system.cpu.MemDepUnit__0.insertedStores       5073057                       # Number of stores inserted to the mem dependence unit. (Count)
system.cpu.MemDepUnit__0.conflictingLoads         9249                       # Number of conflicting loads. (Count)
system.cpu.MemDepUnit__0.conflictingStores        13387                       # Number of conflicting stores. (Count)
system.cpu.MemDepUnit__1.insertedLoads              0                       # Number of loads inserted to the mem dependence unit. (Count)
system.cpu.MemDepUnit__1.insertedStores             0                       # Number of stores inserted to the mem dependence unit. (Count)
system.cpu.MemDepUnit__1.conflictingLoads            0                       # Number of conflicting loads. (Count)
system.cpu.MemDepUnit__1.conflictingStores            0                       # Number of conflicting stores. (Count)
system.cpu.MemDepUnit__2.insertedLoads              0                       # Number of loads inserted to the mem dependence unit. (Count)
system.cpu.MemDepUnit__2.insertedStores             0                       # Number of stores inserted to the mem dependence unit. (Count)
system.cpu.MemDepUnit__2.conflictingLoads            0                       # Number of conflicting loads. (Count)
system.cpu.MemDepUnit__2.conflictingStores            0                       # Number of conflicting stores. (Count)
system.cpu.MemDepUnit__3.insertedLoads              0                       # Number of loads inserted to the mem dependence unit. (Count)
system.cpu.MemDepUnit__3.insertedStores             0                       # Number of stores inserted to the mem dependence unit. (Count)
system.cpu.MemDepUnit__3.conflictingLoads            0                       # Number of conflicting loads. (Count)
system.cpu.MemDepUnit__3.conflictingStores            0                       # Number of conflicting stores. (Count)
system.cpu.branchPred.lookups                13853081                       # Number of BP lookups (Count)
system.cpu.branchPred.condPredicted          13778611                       # Number of conditional branches predicted (Count)
system.cpu.branchPred.condIncorrect             22589                       # Number of conditional branches incorrect (Count)
system.cpu.branchPred.BTBLookups              5356424                       # Number of BTB lookups (Count)
system.cpu.branchPred.BTBUpdates                 7892                       # Number of BTB updates (Count)
system.cpu.branchPred.BTBHits                 5353574                       # Number of BTB hits (Count)
system.cpu.branchPred.BTBHitRatio            0.999468                       # BTB Hit Ratio (Ratio)
system.cpu.branchPred.RASUsed                   17534                       # Number of times the RAS was used to get a target. (Count)
system.cpu.branchPred.RASIncorrect                 42                       # Number of incorrect RAS predictions. (Count)
system.cpu.branchPred.indirectLookups            6673                       # Number of indirect predictor lookups. (Count)
system.cpu.branchPred.indirectHits               1342                       # Number of indirect target hits. (Count)
system.cpu.branchPred.indirectMisses             5331                       # Number of indirect misses. (Count)
system.cpu.branchPred.indirectMispredicted          668                       # Number of mispredicted indirect branches. (Count)
system.cpu.commit.commitSquashedInsts          997475                       # The number of squashed insts skipped by commit (Count)
system.cpu.commit.commitNonSpecStalls             273                       # The number of times commit has been forced to stall to communicate backwards (Count)
system.cpu.commit.branchMispredicts             22459                       # The number of times a branch was mispredicted (Count)
system.cpu.commit.numCommittedDist::samples     87662094                       # Number of insts commited each cycle (Count)
system.cpu.commit.numCommittedDist::mean     2.283925                       # Number of insts commited each cycle (Count)
system.cpu.commit.numCommittedDist::stdev     3.403628                       # Number of insts commited each cycle (Count)
system.cpu.commit.numCommittedDist::underflows            0      0.00%      0.00% # Number of insts commited each cycle (Count)
system.cpu.commit.numCommittedDist::0        53436362     60.96%     60.96% # Number of insts commited each cycle (Count)
system.cpu.commit.numCommittedDist::1         7257698      8.28%     69.24% # Number of insts commited each cycle (Count)
system.cpu.commit.numCommittedDist::2         1613156      1.84%     71.08% # Number of insts commited each cycle (Count)
system.cpu.commit.numCommittedDist::3          675686      0.77%     71.85% # Number of insts commited each cycle (Count)
system.cpu.commit.numCommittedDist::4          513651      0.59%     72.43% # Number of insts commited each cycle (Count)
system.cpu.commit.numCommittedDist::5         2015206      2.30%     74.73% # Number of insts commited each cycle (Count)
system.cpu.commit.numCommittedDist::6          629857      0.72%     75.45% # Number of insts commited each cycle (Count)
system.cpu.commit.numCommittedDist::7          370993      0.42%     75.87% # Number of insts commited each cycle (Count)
system.cpu.commit.numCommittedDist::8        21149485     24.13%    100.00% # Number of insts commited each cycle (Count)
system.cpu.commit.numCommittedDist::overflows            0      0.00%    100.00% # Number of insts commited each cycle (Count)
system.cpu.commit.numCommittedDist::min_value            0                       # Number of insts commited each cycle (Count)
system.cpu.commit.numCommittedDist::max_value            8                       # Number of insts commited each cycle (Count)
system.cpu.commit.numCommittedDist::total     87662094                       # Number of insts commited each cycle (Count)
system.cpu.commit.instsCommitted            174739060                       # Number of instructions committed (Count)
system.cpu.commit.opsCommitted              200213675                       # Number of ops (including micro ops) committed (Count)
system.cpu.commit.memRefs                    30445264                       # Number of memory references committed (Count)
system.cpu.commit.loads                      25417130                       # Number of loads committed (Count)
system.cpu.commit.amos                            106                       # Number of atomic instructions committed (Count)
system.cpu.commit.membars                         114                       # Number of memory barriers committed (Count)
system.cpu.commit.branches                   13612203                       # Number of branches committed (Count)
system.cpu.commit.vectorInstructions         89130047                       # Number of committed Vector instructions. (Count)
system.cpu.commit.floating                          0                       # Number of committed floating point instructions. (Count)
system.cpu.commit.integer                   136227294                       # Number of committed integer instructions. (Count)
system.cpu.commit.functionCalls                 11005                       # Number of function calls committed. (Count)
system.cpu.commit.committedInstType_0::No_OpClass     10081537      5.04%      5.04% # Class of committed instruction (Count)
system.cpu.commit.committedInstType_0::IntAlu     88930962     44.42%     49.45% # Class of committed instruction (Count)
system.cpu.commit.committedInstType_0::IntMult      5938589      2.97%     52.42% # Class of committed instruction (Count)
system.cpu.commit.committedInstType_0::IntDiv      5934087      2.96%     55.38% # Class of committed instruction (Count)
system.cpu.commit.committedInstType_0::FloatAdd            0      0.00%     55.38% # Class of committed instruction (Count)
system.cpu.commit.committedInstType_0::FloatCmp            0      0.00%     55.38% # Class of committed instruction (Count)
system.cpu.commit.committedInstType_0::FloatCvt            0      0.00%     55.38% # Class of committed instruction (Count)
system.cpu.commit.committedInstType_0::FloatMult            0      0.00%     55.38% # Class of committed instruction (Count)
system.cpu.commit.committedInstType_0::FloatMultAcc            0      0.00%     55.38% # Class of committed instruction (Count)
system.cpu.commit.committedInstType_0::FloatDiv            0      0.00%     55.38% # Class of committed instruction (Count)
system.cpu.commit.committedInstType_0::FloatMisc            2      0.00%     55.38% # Class of committed instruction (Count)
system.cpu.commit.committedInstType_0::FloatSqrt            0      0.00%     55.38% # Class of committed instruction (Count)
system.cpu.commit.committedInstType_0::SimdAdd     19360075      9.67%     65.05% # Class of committed instruction (Count)
system.cpu.commit.committedInstType_0::SimdAddAcc            0      0.00%     65.05% # Class of committed instruction (Count)
system.cpu.commit.committedInstType_0::SimdAlu       802967      0.40%     65.45% # Class of committed instruction (Count)
system.cpu.commit.committedInstType_0::SimdCmp           93      0.00%     65.45% # Class of committed instruction (Count)
system.cpu.commit.committedInstType_0::SimdCvt            0      0.00%     65.45% # Class of committed instruction (Count)
system.cpu.commit.committedInstType_0::SimdMisc     19360099      9.67%     75.12% # Class of committed instruction (Count)
system.cpu.commit.committedInstType_0::SimdMult     19360000      9.67%     84.79% # Class of committed instruction (Count)
system.cpu.commit.committedInstType_0::SimdMultAcc            0      0.00%     84.79% # Class of committed instruction (Count)
system.cpu.commit.committedInstType_0::SimdShift            0      0.00%     84.79% # Class of committed instruction (Count)
system.cpu.commit.committedInstType_0::SimdShiftAcc            0      0.00%     84.79% # Class of committed instruction (Count)
system.cpu.commit.committedInstType_0::SimdDiv            0      0.00%     84.79% # Class of committed instruction (Count)
system.cpu.commit.committedInstType_0::SimdSqrt            0      0.00%     84.79% # Class of committed instruction (Count)
system.cpu.commit.committedInstType_0::SimdFloatAdd            0      0.00%     84.79% # Class of committed instruction (Count)
system.cpu.commit.committedInstType_0::SimdFloatAlu            0      0.00%     84.79% # Class of committed instruction (Count)
system.cpu.commit.committedInstType_0::SimdFloatCmp            0      0.00%     84.79% # Class of committed instruction (Count)
system.cpu.commit.committedInstType_0::SimdFloatCvt            0      0.00%     84.79% # Class of committed instruction (Count)
system.cpu.commit.committedInstType_0::SimdFloatDiv            0      0.00%     84.79% # Class of committed instruction (Count)
system.cpu.commit.committedInstType_0::SimdFloatMisc            0      0.00%     84.79% # Class of committed instruction (Count)
system.cpu.commit.committedInstType_0::SimdFloatMult            0      0.00%     84.79% # Class of committed instruction (Count)
system.cpu.commit.committedInstType_0::SimdFloatMultAcc            0      0.00%     84.79% # Class of committed instruction (Count)
system.cpu.commit.committedInstType_0::SimdFloatSqrt            0      0.00%     84.79% # Class of committed instruction (Count)
system.cpu.commit.committedInstType_0::SimdReduceAdd            0      0.00%     84.79% # Class of committed instruction (Count)
system.cpu.commit.committedInstType_0::SimdReduceAlu            0      0.00%     84.79% # Class of committed instruction (Count)
system.cpu.commit.committedInstType_0::SimdReduceCmp            0      0.00%     84.79% # Class of committed instruction (Count)
system.cpu.commit.committedInstType_0::SimdFloatReduceAdd            0      0.00%     84.79% # Class of committed instruction (Count)
system.cpu.commit.committedInstType_0::SimdFloatReduceCmp            0      0.00%     84.79% # Class of committed instruction (Count)
system.cpu.commit.committedInstType_0::SimdAes            0      0.00%     84.79% # Class of committed instruction (Count)
system.cpu.commit.committedInstType_0::SimdAesMix            0      0.00%     84.79% # Class of committed instruction (Count)
system.cpu.commit.committedInstType_0::SimdSha1Hash            0      0.00%     84.79% # Class of committed instruction (Count)
system.cpu.commit.committedInstType_0::SimdSha1Hash2            0      0.00%     84.79% # Class of committed instruction (Count)
system.cpu.commit.committedInstType_0::SimdSha256Hash            0      0.00%     84.79% # Class of committed instruction (Count)
system.cpu.commit.committedInstType_0::SimdSha256Hash2            0      0.00%     84.79% # Class of committed instruction (Count)
system.cpu.commit.committedInstType_0::SimdShaSigma2            0      0.00%     84.79% # Class of committed instruction (Count)
system.cpu.commit.committedInstType_0::SimdShaSigma3            0      0.00%     84.79% # Class of committed instruction (Count)
system.cpu.commit.committedInstType_0::SimdPredAlu            0      0.00%     84.79% # Class of committed instruction (Count)
system.cpu.commit.committedInstType_0::MemRead     25417130     12.70%     97.49% # Class of committed instruction (Count)
system.cpu.commit.committedInstType_0::MemWrite      5028134      2.51%    100.00% # Class of committed instruction (Count)
system.cpu.commit.committedInstType_0::FloatMemRead            0      0.00%    100.00% # Class of committed instruction (Count)
system.cpu.commit.committedInstType_0::FloatMemWrite            0      0.00%    100.00% # Class of committed instruction (Count)
system.cpu.commit.committedInstType_0::IprAccess            0      0.00%    100.00% # Class of committed instruction (Count)
system.cpu.commit.committedInstType_0::InstPrefetch            0      0.00%    100.00% # Class of committed instruction (Count)
system.cpu.commit.committedInstType_0::total    200213675                       # Class of committed instruction (Count)
system.cpu.commit.commitEligibleSamples      21149485                       # number cycles where commit BW limit reached (Cycle)
system.cpu.dcache.demandHits::cpu.data       29579128                       # number of demand (read+write) hits (Count)
system.cpu.dcache.demandHits::total          29579128                       # number of demand (read+write) hits (Count)
system.cpu.dcache.overallHits::cpu.data      29579128                       # number of overall hits (Count)
system.cpu.dcache.overallHits::total         29579128                       # number of overall hits (Count)
system.cpu.dcache.demandMisses::cpu.data       955164                       # number of demand (read+write) misses (Count)
system.cpu.dcache.demandMisses::total          955164                       # number of demand (read+write) misses (Count)
system.cpu.dcache.overallMisses::cpu.data       955164                       # number of overall misses (Count)
system.cpu.dcache.overallMisses::total         955164                       # number of overall misses (Count)
system.cpu.dcache.demandMissLatency::cpu.data  42710810990                       # number of demand (read+write) miss ticks (Tick)
system.cpu.dcache.demandMissLatency::total  42710810990                       # number of demand (read+write) miss ticks (Tick)
system.cpu.dcache.overallMissLatency::cpu.data  42710810990                       # number of overall miss ticks (Tick)
system.cpu.dcache.overallMissLatency::total  42710810990                       # number of overall miss ticks (Tick)
system.cpu.dcache.demandAccesses::cpu.data     30534292                       # number of demand (read+write) accesses (Count)
system.cpu.dcache.demandAccesses::total      30534292                       # number of demand (read+write) accesses (Count)
system.cpu.dcache.overallAccesses::cpu.data     30534292                       # number of overall (read+write) accesses (Count)
system.cpu.dcache.overallAccesses::total     30534292                       # number of overall (read+write) accesses (Count)
system.cpu.dcache.demandMissRate::cpu.data     0.031282                       # miss rate for demand accesses (Ratio)
system.cpu.dcache.demandMissRate::total      0.031282                       # miss rate for demand accesses (Ratio)
system.cpu.dcache.overallMissRate::cpu.data     0.031282                       # miss rate for overall accesses (Ratio)
system.cpu.dcache.overallMissRate::total     0.031282                       # miss rate for overall accesses (Ratio)
system.cpu.dcache.demandAvgMissLatency::cpu.data 44715.683370                       # average overall miss latency in ticks ((Tick/Count))
system.cpu.dcache.demandAvgMissLatency::total 44715.683370                       # average overall miss latency in ticks ((Tick/Count))
system.cpu.dcache.overallAvgMissLatency::cpu.data 44715.683370                       # average overall miss latency ((Tick/Count))
system.cpu.dcache.overallAvgMissLatency::total 44715.683370                       # average overall miss latency ((Tick/Count))
system.cpu.dcache.blockedCycles::no_mshrs       100954                       # number of cycles access was blocked (Cycle)
system.cpu.dcache.blockedCycles::no_targets          596                       # number of cycles access was blocked (Cycle)
system.cpu.dcache.blockedCauses::no_mshrs         2206                       # number of times access was blocked (Count)
system.cpu.dcache.blockedCauses::no_targets            9                       # number of times access was blocked (Count)
system.cpu.dcache.avgBlocked::no_mshrs      45.763373                       # average number of cycles each access was blocked ((Cycle/Count))
system.cpu.dcache.avgBlocked::no_targets    66.222222                       # average number of cycles each access was blocked ((Cycle/Count))
system.cpu.dcache.writebacks::writebacks       687664                       # number of writebacks (Count)
system.cpu.dcache.writebacks::total            687664                       # number of writebacks (Count)
system.cpu.dcache.demandMshrHits::cpu.data        52993                       # number of demand (read+write) MSHR hits (Count)
system.cpu.dcache.demandMshrHits::total         52993                       # number of demand (read+write) MSHR hits (Count)
system.cpu.dcache.overallMshrHits::cpu.data        52993                       # number of overall MSHR hits (Count)
system.cpu.dcache.overallMshrHits::total        52993                       # number of overall MSHR hits (Count)
system.cpu.dcache.demandMshrMisses::cpu.data       902171                       # number of demand (read+write) MSHR misses (Count)
system.cpu.dcache.demandMshrMisses::total       902171                       # number of demand (read+write) MSHR misses (Count)
system.cpu.dcache.overallMshrMisses::cpu.data       902171                       # number of overall MSHR misses (Count)
system.cpu.dcache.overallMshrMisses::total       902171                       # number of overall MSHR misses (Count)
system.cpu.dcache.demandMshrMissLatency::cpu.data  38364912199                       # number of demand (read+write) MSHR miss ticks (Tick)
system.cpu.dcache.demandMshrMissLatency::total  38364912199                       # number of demand (read+write) MSHR miss ticks (Tick)
system.cpu.dcache.overallMshrMissLatency::cpu.data  38364912199                       # number of overall MSHR miss ticks (Tick)
system.cpu.dcache.overallMshrMissLatency::total  38364912199                       # number of overall MSHR miss ticks (Tick)
system.cpu.dcache.demandMshrMissRate::cpu.data     0.029546                       # mshr miss ratio for demand accesses (Ratio)
system.cpu.dcache.demandMshrMissRate::total     0.029546                       # mshr miss ratio for demand accesses (Ratio)
system.cpu.dcache.overallMshrMissRate::cpu.data     0.029546                       # mshr miss ratio for overall accesses (Ratio)
system.cpu.dcache.overallMshrMissRate::total     0.029546                       # mshr miss ratio for overall accesses (Ratio)
system.cpu.dcache.demandAvgMshrMissLatency::cpu.data 42525.100229                       # average overall mshr miss latency ((Tick/Count))
system.cpu.dcache.demandAvgMshrMissLatency::total 42525.100229                       # average overall mshr miss latency ((Tick/Count))
system.cpu.dcache.overallAvgMshrMissLatency::cpu.data 42525.100229                       # average overall mshr miss latency ((Tick/Count))
system.cpu.dcache.overallAvgMshrMissLatency::total 42525.100229                       # average overall mshr miss latency ((Tick/Count))
system.cpu.dcache.replacements                 901153                       # number of replacements (Count)
system.cpu.dcache.ReadReq.hits::cpu.data     24556800                       # number of ReadReq hits (Count)
system.cpu.dcache.ReadReq.hits::total        24556800                       # number of ReadReq hits (Count)
system.cpu.dcache.ReadReq.misses::cpu.data       949450                       # number of ReadReq misses (Count)
system.cpu.dcache.ReadReq.misses::total        949450                       # number of ReadReq misses (Count)
system.cpu.dcache.ReadReq.missLatency::cpu.data  42382328000                       # number of ReadReq miss ticks (Tick)
system.cpu.dcache.ReadReq.missLatency::total  42382328000                       # number of ReadReq miss ticks (Tick)
system.cpu.dcache.ReadReq.accesses::cpu.data     25506250                       # number of ReadReq accesses(hits+misses) (Count)
system.cpu.dcache.ReadReq.accesses::total     25506250                       # number of ReadReq accesses(hits+misses) (Count)
system.cpu.dcache.ReadReq.missRate::cpu.data     0.037224                       # miss rate for ReadReq accesses (Ratio)
system.cpu.dcache.ReadReq.missRate::total     0.037224                       # miss rate for ReadReq accesses (Ratio)
system.cpu.dcache.ReadReq.avgMissLatency::cpu.data 44638.820370                       # average ReadReq miss latency ((Tick/Count))
system.cpu.dcache.ReadReq.avgMissLatency::total 44638.820370                       # average ReadReq miss latency ((Tick/Count))
system.cpu.dcache.ReadReq.mshrHits::cpu.data        49536                       # number of ReadReq MSHR hits (Count)
system.cpu.dcache.ReadReq.mshrHits::total        49536                       # number of ReadReq MSHR hits (Count)
system.cpu.dcache.ReadReq.mshrMisses::cpu.data       899914                       # number of ReadReq MSHR misses (Count)
system.cpu.dcache.ReadReq.mshrMisses::total       899914                       # number of ReadReq MSHR misses (Count)
system.cpu.dcache.ReadReq.mshrMissLatency::cpu.data  38232677000                       # number of ReadReq MSHR miss ticks (Tick)
system.cpu.dcache.ReadReq.mshrMissLatency::total  38232677000                       # number of ReadReq MSHR miss ticks (Tick)
system.cpu.dcache.ReadReq.mshrMissRate::cpu.data     0.035282                       # mshr miss rate for ReadReq accesses (Ratio)
system.cpu.dcache.ReadReq.mshrMissRate::total     0.035282                       # mshr miss rate for ReadReq accesses (Ratio)
system.cpu.dcache.ReadReq.avgMshrMissLatency::cpu.data 42484.811882                       # average ReadReq mshr miss latency ((Tick/Count))
system.cpu.dcache.ReadReq.avgMshrMissLatency::total 42484.811882                       # average ReadReq mshr miss latency ((Tick/Count))
system.cpu.dcache.SwapReq.hits::cpu.data          100                       # number of SwapReq hits (Count)
system.cpu.dcache.SwapReq.hits::total             100                       # number of SwapReq hits (Count)
system.cpu.dcache.SwapReq.misses::cpu.data            6                       # number of SwapReq misses (Count)
system.cpu.dcache.SwapReq.misses::total             6                       # number of SwapReq misses (Count)
system.cpu.dcache.SwapReq.missLatency::cpu.data       332000                       # number of SwapReq miss ticks (Tick)
system.cpu.dcache.SwapReq.missLatency::total       332000                       # number of SwapReq miss ticks (Tick)
system.cpu.dcache.SwapReq.accesses::cpu.data          106                       # number of SwapReq accesses(hits+misses) (Count)
system.cpu.dcache.SwapReq.accesses::total          106                       # number of SwapReq accesses(hits+misses) (Count)
system.cpu.dcache.SwapReq.missRate::cpu.data     0.056604                       # miss rate for SwapReq accesses (Ratio)
system.cpu.dcache.SwapReq.missRate::total     0.056604                       # miss rate for SwapReq accesses (Ratio)
system.cpu.dcache.SwapReq.avgMissLatency::cpu.data 55333.333333                       # average SwapReq miss latency ((Tick/Count))
system.cpu.dcache.SwapReq.avgMissLatency::total 55333.333333                       # average SwapReq miss latency ((Tick/Count))
system.cpu.dcache.SwapReq.mshrMisses::cpu.data            6                       # number of SwapReq MSHR misses (Count)
system.cpu.dcache.SwapReq.mshrMisses::total            6                       # number of SwapReq MSHR misses (Count)
system.cpu.dcache.SwapReq.mshrMissLatency::cpu.data       326000                       # number of SwapReq MSHR miss ticks (Tick)
system.cpu.dcache.SwapReq.mshrMissLatency::total       326000                       # number of SwapReq MSHR miss ticks (Tick)
system.cpu.dcache.SwapReq.mshrMissRate::cpu.data     0.056604                       # mshr miss rate for SwapReq accesses (Ratio)
system.cpu.dcache.SwapReq.mshrMissRate::total     0.056604                       # mshr miss rate for SwapReq accesses (Ratio)
system.cpu.dcache.SwapReq.avgMshrMissLatency::cpu.data 54333.333333                       # average SwapReq mshr miss latency ((Tick/Count))
system.cpu.dcache.SwapReq.avgMshrMissLatency::total 54333.333333                       # average SwapReq mshr miss latency ((Tick/Count))
system.cpu.dcache.WriteLineReq.misses::cpu.data          131                       # number of WriteLineReq misses (Count)
system.cpu.dcache.WriteLineReq.misses::total          131                       # number of WriteLineReq misses (Count)
system.cpu.dcache.WriteLineReq.missLatency::cpu.data      4173908                       # number of WriteLineReq miss ticks (Tick)
system.cpu.dcache.WriteLineReq.missLatency::total      4173908                       # number of WriteLineReq miss ticks (Tick)
system.cpu.dcache.WriteLineReq.accesses::cpu.data          131                       # number of WriteLineReq accesses(hits+misses) (Count)
system.cpu.dcache.WriteLineReq.accesses::total          131                       # number of WriteLineReq accesses(hits+misses) (Count)
system.cpu.dcache.WriteLineReq.missRate::cpu.data            1                       # miss rate for WriteLineReq accesses (Ratio)
system.cpu.dcache.WriteLineReq.missRate::total            1                       # miss rate for WriteLineReq accesses (Ratio)
system.cpu.dcache.WriteLineReq.avgMissLatency::cpu.data 31861.893130                       # average WriteLineReq miss latency ((Tick/Count))
system.cpu.dcache.WriteLineReq.avgMissLatency::total 31861.893130                       # average WriteLineReq miss latency ((Tick/Count))
system.cpu.dcache.WriteLineReq.mshrMisses::cpu.data          131                       # number of WriteLineReq MSHR misses (Count)
system.cpu.dcache.WriteLineReq.mshrMisses::total          131                       # number of WriteLineReq MSHR misses (Count)
system.cpu.dcache.WriteLineReq.mshrMissLatency::cpu.data      4042908                       # number of WriteLineReq MSHR miss ticks (Tick)
system.cpu.dcache.WriteLineReq.mshrMissLatency::total      4042908                       # number of WriteLineReq MSHR miss ticks (Tick)
system.cpu.dcache.WriteLineReq.mshrMissRate::cpu.data            1                       # mshr miss rate for WriteLineReq accesses (Ratio)
system.cpu.dcache.WriteLineReq.mshrMissRate::total            1                       # mshr miss rate for WriteLineReq accesses (Ratio)
system.cpu.dcache.WriteLineReq.avgMshrMissLatency::cpu.data 30861.893130                       # average WriteLineReq mshr miss latency ((Tick/Count))
system.cpu.dcache.WriteLineReq.avgMshrMissLatency::total 30861.893130                       # average WriteLineReq mshr miss latency ((Tick/Count))
system.cpu.dcache.WriteReq.hits::cpu.data      5022328                       # number of WriteReq hits (Count)
system.cpu.dcache.WriteReq.hits::total        5022328                       # number of WriteReq hits (Count)
system.cpu.dcache.WriteReq.misses::cpu.data         5583                       # number of WriteReq misses (Count)
system.cpu.dcache.WriteReq.misses::total         5583                       # number of WriteReq misses (Count)
system.cpu.dcache.WriteReq.missLatency::cpu.data    324309082                       # number of WriteReq miss ticks (Tick)
system.cpu.dcache.WriteReq.missLatency::total    324309082                       # number of WriteReq miss ticks (Tick)
system.cpu.dcache.WriteReq.accesses::cpu.data      5027911                       # number of WriteReq accesses(hits+misses) (Count)
system.cpu.dcache.WriteReq.accesses::total      5027911                       # number of WriteReq accesses(hits+misses) (Count)
system.cpu.dcache.WriteReq.missRate::cpu.data     0.001110                       # miss rate for WriteReq accesses (Ratio)
system.cpu.dcache.WriteReq.missRate::total     0.001110                       # miss rate for WriteReq accesses (Ratio)
system.cpu.dcache.WriteReq.avgMissLatency::cpu.data 58088.676697                       # average WriteReq miss latency ((Tick/Count))
system.cpu.dcache.WriteReq.avgMissLatency::total 58088.676697                       # average WriteReq miss latency ((Tick/Count))
system.cpu.dcache.WriteReq.mshrHits::cpu.data         3457                       # number of WriteReq MSHR hits (Count)
system.cpu.dcache.WriteReq.mshrHits::total         3457                       # number of WriteReq MSHR hits (Count)
system.cpu.dcache.WriteReq.mshrMisses::cpu.data         2126                       # number of WriteReq MSHR misses (Count)
system.cpu.dcache.WriteReq.mshrMisses::total         2126                       # number of WriteReq MSHR misses (Count)
system.cpu.dcache.WriteReq.mshrMissLatency::cpu.data    128192291                       # number of WriteReq MSHR miss ticks (Tick)
system.cpu.dcache.WriteReq.mshrMissLatency::total    128192291                       # number of WriteReq MSHR miss ticks (Tick)
system.cpu.dcache.WriteReq.mshrMissRate::cpu.data     0.000423                       # mshr miss rate for WriteReq accesses (Ratio)
system.cpu.dcache.WriteReq.mshrMissRate::total     0.000423                       # mshr miss rate for WriteReq accesses (Ratio)
system.cpu.dcache.WriteReq.avgMshrMissLatency::cpu.data 60297.408749                       # average WriteReq mshr miss latency ((Tick/Count))
system.cpu.dcache.WriteReq.avgMshrMissLatency::total 60297.408749                       # average WriteReq mshr miss latency ((Tick/Count))
system.cpu.dcache.power_state.pwrStateResidencyTicks::UNDEFINED  43973090000                       # Cumulative time (in ticks) in various power states (Tick)
system.cpu.dcache.tags.tagsInUse          1023.152241                       # Average ticks per tags in use ((Tick/Count))
system.cpu.dcache.tags.totalRefs             30481405                       # Total number of references to valid blocks. (Count)
system.cpu.dcache.tags.sampledRefs             902177                       # Sample count of references to valid blocks. (Count)
system.cpu.dcache.tags.avgRefs              33.786502                       # Average number of references to valid blocks. ((Count/Count))
system.cpu.dcache.tags.warmupTick              253500                       # The tick when the warmup percentage was hit. (Tick)
system.cpu.dcache.tags.occupancies::cpu.data  1023.152241                       # Average occupied blocks per tick, per requestor ((Count/Tick))
system.cpu.dcache.tags.avgOccs::cpu.data     0.999172                       # Average percentage of cache occupancy ((Ratio/Tick))
system.cpu.dcache.tags.avgOccs::total        0.999172                       # Average percentage of cache occupancy ((Ratio/Tick))
system.cpu.dcache.tags.occupanciesTaskId::1024         1024                       # Occupied blocks per task id (Count)
system.cpu.dcache.tags.ageTaskId_1024::0           96                       # Occupied blocks per task id, per block age (Count)
system.cpu.dcache.tags.ageTaskId_1024::1          699                       # Occupied blocks per task id, per block age (Count)
system.cpu.dcache.tags.ageTaskId_1024::2          204                       # Occupied blocks per task id, per block age (Count)
system.cpu.dcache.tags.ageTaskId_1024::3           25                       # Occupied blocks per task id, per block age (Count)
system.cpu.dcache.tags.ratioOccsTaskId::1024            1                       # Ratio of occupied blocks and all blocks, per task id (Ratio)
system.cpu.dcache.tags.tagAccesses          123039769                       # Number of tag accesses (Count)
system.cpu.dcache.tags.dataAccesses         123039769                       # Number of data accesses (Count)
system.cpu.dcache.tags.power_state.pwrStateResidencyTicks::UNDEFINED  43973090000                       # Cumulative time (in ticks) in various power states (Tick)
system.cpu.decode.idleCycles                  9013429                       # Number of cycles decode is idle (Cycle)
system.cpu.decode.blockedCycles              50224297                       # Number of cycles decode is blocked (Cycle)
system.cpu.decode.runCycles                  22173888                       # Number of cycles decode is running (Cycle)
system.cpu.decode.unblockCycles               6373084                       # Number of cycles decode is unblocking (Cycle)
system.cpu.decode.squashCycles                  23490                       # Number of cycles decode is squashing (Cycle)
system.cpu.decode.branchResolved              5326214                       # Number of times decode resolved a branch (Count)
system.cpu.decode.branchMispred                   833                       # Number of times decode detected a branch misprediction (Count)
system.cpu.decode.decodedInsts              201465900                       # Number of instructions handled by decode (Count)
system.cpu.decode.squashedInsts                  2820                       # Number of squashed instructions handled by decode (Count)
system.cpu.fetch.icacheStallCycles           16336290                       # Number of cycles fetch is stalled on an Icache miss (Cycle)
system.cpu.fetch.insts                      176214547                       # Number of instructions fetch has processed (Count)
system.cpu.fetch.branches                    13853081                       # Number of branches that fetch encountered (Count)
system.cpu.fetch.predictedBranches            5372450                       # Number of branches that fetch has predicted taken (Count)
system.cpu.fetch.cycles                      71442113                       # Number of cycles fetch has run and was not squashing or blocked (Cycle)
system.cpu.fetch.squashCycles                   48600                       # Number of cycles fetch has spent squashing (Cycle)
system.cpu.fetch.miscStallCycles                  716                       # Number of cycles fetch has spent waiting on interrupts, or bad addresses, or out of MSHRs (Cycle)
system.cpu.fetch.pendingTrapStallCycles          4728                       # Number of stall cycles due to pending traps (Cycle)
system.cpu.fetch.icacheWaitRetryStallCycles           41                       # Number of stall cycles due to full MSHR (Cycle)
system.cpu.fetch.cacheLines                  16282711                       # Number of cache lines fetched (Count)
system.cpu.fetch.icacheSquashes                  5804                       # Number of outstanding Icache misses that were squashed (Count)
system.cpu.fetch.nisnDist::samples           87808188                       # Number of instructions fetched each cycle (Total) (Count)
system.cpu.fetch.nisnDist::mean              2.299264                       # Number of instructions fetched each cycle (Total) (Count)
system.cpu.fetch.nisnDist::stdev             3.363436                       # Number of instructions fetched each cycle (Total) (Count)
system.cpu.fetch.nisnDist::underflows               0      0.00%      0.00% # Number of instructions fetched each cycle (Total) (Count)
system.cpu.fetch.nisnDist::0                 54886556     62.51%     62.51% # Number of instructions fetched each cycle (Total) (Count)
system.cpu.fetch.nisnDist::1                  4131904      4.71%     67.21% # Number of instructions fetched each cycle (Total) (Count)
system.cpu.fetch.nisnDist::2                   842244      0.96%     68.17% # Number of instructions fetched each cycle (Total) (Count)
system.cpu.fetch.nisnDist::3                   653540      0.74%     68.92% # Number of instructions fetched each cycle (Total) (Count)
system.cpu.fetch.nisnDist::4                  4114563      4.69%     73.60% # Number of instructions fetched each cycle (Total) (Count)
system.cpu.fetch.nisnDist::5                  1508407      1.72%     75.32% # Number of instructions fetched each cycle (Total) (Count)
system.cpu.fetch.nisnDist::6                  1225347      1.40%     76.72% # Number of instructions fetched each cycle (Total) (Count)
system.cpu.fetch.nisnDist::7                   800191      0.91%     77.63% # Number of instructions fetched each cycle (Total) (Count)
system.cpu.fetch.nisnDist::8                 19645436     22.37%    100.00% # Number of instructions fetched each cycle (Total) (Count)
system.cpu.fetch.nisnDist::overflows                0      0.00%    100.00% # Number of instructions fetched each cycle (Total) (Count)
system.cpu.fetch.nisnDist::min_value                0                       # Number of instructions fetched each cycle (Total) (Count)
system.cpu.fetch.nisnDist::max_value                8                       # Number of instructions fetched each cycle (Total) (Count)
system.cpu.fetch.nisnDist::total             87808188                       # Number of instructions fetched each cycle (Total) (Count)
system.cpu.fetch.branchRate                  0.157518                       # Number of branch fetches per cycle (Ratio)
system.cpu.fetch.rate                        2.003663                       # Number of inst fetches per cycle ((Count/Cycle))
system.cpu.icache.demandHits::cpu.inst       16280103                       # number of demand (read+write) hits (Count)
system.cpu.icache.demandHits::total          16280103                       # number of demand (read+write) hits (Count)
system.cpu.icache.overallHits::cpu.inst      16280103                       # number of overall hits (Count)
system.cpu.icache.overallHits::total         16280103                       # number of overall hits (Count)
system.cpu.icache.demandMisses::cpu.inst         2608                       # number of demand (read+write) misses (Count)
system.cpu.icache.demandMisses::total            2608                       # number of demand (read+write) misses (Count)
system.cpu.icache.overallMisses::cpu.inst         2608                       # number of overall misses (Count)
system.cpu.icache.overallMisses::total           2608                       # number of overall misses (Count)
system.cpu.icache.demandMissLatency::cpu.inst    173082999                       # number of demand (read+write) miss ticks (Tick)
system.cpu.icache.demandMissLatency::total    173082999                       # number of demand (read+write) miss ticks (Tick)
system.cpu.icache.overallMissLatency::cpu.inst    173082999                       # number of overall miss ticks (Tick)
system.cpu.icache.overallMissLatency::total    173082999                       # number of overall miss ticks (Tick)
system.cpu.icache.demandAccesses::cpu.inst     16282711                       # number of demand (read+write) accesses (Count)
system.cpu.icache.demandAccesses::total      16282711                       # number of demand (read+write) accesses (Count)
system.cpu.icache.overallAccesses::cpu.inst     16282711                       # number of overall (read+write) accesses (Count)
system.cpu.icache.overallAccesses::total     16282711                       # number of overall (read+write) accesses (Count)
system.cpu.icache.demandMissRate::cpu.inst     0.000160                       # miss rate for demand accesses (Ratio)
system.cpu.icache.demandMissRate::total      0.000160                       # miss rate for demand accesses (Ratio)
system.cpu.icache.overallMissRate::cpu.inst     0.000160                       # miss rate for overall accesses (Ratio)
system.cpu.icache.overallMissRate::total     0.000160                       # miss rate for overall accesses (Ratio)
system.cpu.icache.demandAvgMissLatency::cpu.inst 66366.180598                       # average overall miss latency in ticks ((Tick/Count))
system.cpu.icache.demandAvgMissLatency::total 66366.180598                       # average overall miss latency in ticks ((Tick/Count))
system.cpu.icache.overallAvgMissLatency::cpu.inst 66366.180598                       # average overall miss latency ((Tick/Count))
system.cpu.icache.overallAvgMissLatency::total 66366.180598                       # average overall miss latency ((Tick/Count))
system.cpu.icache.blockedCycles::no_mshrs          836                       # number of cycles access was blocked (Cycle)
system.cpu.icache.blockedCycles::no_targets            0                       # number of cycles access was blocked (Cycle)
system.cpu.icache.blockedCauses::no_mshrs           14                       # number of times access was blocked (Count)
system.cpu.icache.blockedCauses::no_targets            0                       # number of times access was blocked (Count)
system.cpu.icache.avgBlocked::no_mshrs      59.714286                       # average number of cycles each access was blocked ((Cycle/Count))
system.cpu.icache.avgBlocked::no_targets          nan                       # average number of cycles each access was blocked ((Cycle/Count))
system.cpu.icache.writebacks::writebacks         1772                       # number of writebacks (Count)
system.cpu.icache.writebacks::total              1772                       # number of writebacks (Count)
system.cpu.icache.demandMshrHits::cpu.inst          579                       # number of demand (read+write) MSHR hits (Count)
system.cpu.icache.demandMshrHits::total           579                       # number of demand (read+write) MSHR hits (Count)
system.cpu.icache.overallMshrHits::cpu.inst          579                       # number of overall MSHR hits (Count)
system.cpu.icache.overallMshrHits::total          579                       # number of overall MSHR hits (Count)
system.cpu.icache.demandMshrMisses::cpu.inst         2029                       # number of demand (read+write) MSHR misses (Count)
system.cpu.icache.demandMshrMisses::total         2029                       # number of demand (read+write) MSHR misses (Count)
system.cpu.icache.overallMshrMisses::cpu.inst         2029                       # number of overall MSHR misses (Count)
system.cpu.icache.overallMshrMisses::total         2029                       # number of overall MSHR misses (Count)
system.cpu.icache.demandMshrMissLatency::cpu.inst    136316000                       # number of demand (read+write) MSHR miss ticks (Tick)
system.cpu.icache.demandMshrMissLatency::total    136316000                       # number of demand (read+write) MSHR miss ticks (Tick)
system.cpu.icache.overallMshrMissLatency::cpu.inst    136316000                       # number of overall MSHR miss ticks (Tick)
system.cpu.icache.overallMshrMissLatency::total    136316000                       # number of overall MSHR miss ticks (Tick)
system.cpu.icache.demandMshrMissRate::cpu.inst     0.000125                       # mshr miss ratio for demand accesses (Ratio)
system.cpu.icache.demandMshrMissRate::total     0.000125                       # mshr miss ratio for demand accesses (Ratio)
system.cpu.icache.overallMshrMissRate::cpu.inst     0.000125                       # mshr miss ratio for overall accesses (Ratio)
system.cpu.icache.overallMshrMissRate::total     0.000125                       # mshr miss ratio for overall accesses (Ratio)
system.cpu.icache.demandAvgMshrMissLatency::cpu.inst 67183.834401                       # average overall mshr miss latency ((Tick/Count))
system.cpu.icache.demandAvgMshrMissLatency::total 67183.834401                       # average overall mshr miss latency ((Tick/Count))
system.cpu.icache.overallAvgMshrMissLatency::cpu.inst 67183.834401                       # average overall mshr miss latency ((Tick/Count))
system.cpu.icache.overallAvgMshrMissLatency::total 67183.834401                       # average overall mshr miss latency ((Tick/Count))
system.cpu.icache.replacements                   1772                       # number of replacements (Count)
system.cpu.icache.ReadReq.hits::cpu.inst     16280103                       # number of ReadReq hits (Count)
system.cpu.icache.ReadReq.hits::total        16280103                       # number of ReadReq hits (Count)
system.cpu.icache.ReadReq.misses::cpu.inst         2608                       # number of ReadReq misses (Count)
system.cpu.icache.ReadReq.misses::total          2608                       # number of ReadReq misses (Count)
system.cpu.icache.ReadReq.missLatency::cpu.inst    173082999                       # number of ReadReq miss ticks (Tick)
system.cpu.icache.ReadReq.missLatency::total    173082999                       # number of ReadReq miss ticks (Tick)
system.cpu.icache.ReadReq.accesses::cpu.inst     16282711                       # number of ReadReq accesses(hits+misses) (Count)
system.cpu.icache.ReadReq.accesses::total     16282711                       # number of ReadReq accesses(hits+misses) (Count)
system.cpu.icache.ReadReq.missRate::cpu.inst     0.000160                       # miss rate for ReadReq accesses (Ratio)
system.cpu.icache.ReadReq.missRate::total     0.000160                       # miss rate for ReadReq accesses (Ratio)
system.cpu.icache.ReadReq.avgMissLatency::cpu.inst 66366.180598                       # average ReadReq miss latency ((Tick/Count))
system.cpu.icache.ReadReq.avgMissLatency::total 66366.180598                       # average ReadReq miss latency ((Tick/Count))
system.cpu.icache.ReadReq.mshrHits::cpu.inst          579                       # number of ReadReq MSHR hits (Count)
system.cpu.icache.ReadReq.mshrHits::total          579                       # number of ReadReq MSHR hits (Count)
system.cpu.icache.ReadReq.mshrMisses::cpu.inst         2029                       # number of ReadReq MSHR misses (Count)
system.cpu.icache.ReadReq.mshrMisses::total         2029                       # number of ReadReq MSHR misses (Count)
system.cpu.icache.ReadReq.mshrMissLatency::cpu.inst    136316000                       # number of ReadReq MSHR miss ticks (Tick)
system.cpu.icache.ReadReq.mshrMissLatency::total    136316000                       # number of ReadReq MSHR miss ticks (Tick)
system.cpu.icache.ReadReq.mshrMissRate::cpu.inst     0.000125                       # mshr miss rate for ReadReq accesses (Ratio)
system.cpu.icache.ReadReq.mshrMissRate::total     0.000125                       # mshr miss rate for ReadReq accesses (Ratio)
system.cpu.icache.ReadReq.avgMshrMissLatency::cpu.inst 67183.834401                       # average ReadReq mshr miss latency ((Tick/Count))
system.cpu.icache.ReadReq.avgMshrMissLatency::total 67183.834401                       # average ReadReq mshr miss latency ((Tick/Count))
system.cpu.icache.power_state.pwrStateResidencyTicks::UNDEFINED  43973090000                       # Cumulative time (in ticks) in various power states (Tick)
system.cpu.icache.tags.tagsInUse           255.912218                       # Average ticks per tags in use ((Tick/Count))
system.cpu.icache.tags.totalRefs             16282131                       # Total number of references to valid blocks. (Count)
system.cpu.icache.tags.sampledRefs               2028                       # Sample count of references to valid blocks. (Count)
system.cpu.icache.tags.avgRefs            8028.664201                       # Average number of references to valid blocks. ((Count/Count))
system.cpu.icache.tags.warmupTick               87500                       # The tick when the warmup percentage was hit. (Tick)
system.cpu.icache.tags.occupancies::cpu.inst   255.912218                       # Average occupied blocks per tick, per requestor ((Count/Tick))
system.cpu.icache.tags.avgOccs::cpu.inst     0.999657                       # Average percentage of cache occupancy ((Ratio/Tick))
system.cpu.icache.tags.avgOccs::total        0.999657                       # Average percentage of cache occupancy ((Ratio/Tick))
system.cpu.icache.tags.occupanciesTaskId::1024          256                       # Occupied blocks per task id (Count)
system.cpu.icache.tags.ageTaskId_1024::0           77                       # Occupied blocks per task id, per block age (Count)
system.cpu.icache.tags.ageTaskId_1024::1           98                       # Occupied blocks per task id, per block age (Count)
system.cpu.icache.tags.ageTaskId_1024::4           81                       # Occupied blocks per task id, per block age (Count)
system.cpu.icache.tags.ratioOccsTaskId::1024            1                       # Ratio of occupied blocks and all blocks, per task id (Ratio)
system.cpu.icache.tags.tagAccesses           65132872                       # Number of tag accesses (Count)
system.cpu.icache.tags.dataAccesses          65132872                       # Number of data accesses (Count)
system.cpu.icache.tags.power_state.pwrStateResidencyTicks::UNDEFINED  43973090000                       # Cumulative time (in ticks) in various power states (Tick)
system.cpu.iew.idleCycles                           0                       # Number of cycles IEW is idle (Cycle)
system.cpu.iew.squashCycles                     23490                       # Number of cycles IEW is squashing (Cycle)
system.cpu.iew.blockCycles                   17738310                       # Number of cycles IEW is blocking (Cycle)
system.cpu.iew.unblockCycles                   528449                       # Number of cycles IEW is unblocking (Cycle)
system.cpu.iew.dispatchedInsts              201245221                       # Number of instructions dispatched to IQ (Count)
system.cpu.iew.dispSquashedInsts                 2633                       # Number of squashed instructions skipped by dispatch (Count)
system.cpu.iew.dispLoadInsts                 25578574                       # Number of dispatched load instructions (Count)
system.cpu.iew.dispStoreInsts                 5073057                       # Number of dispatched store instructions (Count)
system.cpu.iew.dispNonSpecInsts                   405                       # Number of dispatched non-speculative instructions (Count)
system.cpu.iew.iqFullEvents                    271861                       # Number of times the IQ has become full, causing a stall (Count)
system.cpu.iew.lsqFullEvents                    25844                       # Number of times the LSQ has become full, causing a stall (Count)
system.cpu.iew.memOrderViolationEvents             77                       # Number of memory order violations (Count)
system.cpu.iew.predictedTakenIncorrect          14993                       # Number of branches that were predicted taken incorrectly (Count)
system.cpu.iew.predictedNotTakenIncorrect         9956                       # Number of branches that were predicted not taken incorrectly (Count)
system.cpu.iew.branchMispredicts                24949                       # Number of branch mispredicts detected at execute (Count)
system.cpu.iew.instsToCommit                199840486                       # Cumulative count of insts sent to commit (Count)
system.cpu.iew.writebackCount               199829051                       # Cumulative count of insts written-back (Count)
system.cpu.iew.producerInst                 163793907                       # Number of instructions producing a value (Count)
system.cpu.iew.consumerInst                 271278713                       # Number of instructions consuming a value (Count)
system.cpu.iew.wbRate                        2.272174                       # Insts written-back per cycle ((Count/Cycle))
system.cpu.iew.wbFanout                      0.603785                       # Average fanout of values written-back ((Count/Count))
system.cpu.lsq0.forwLoads                       24389                       # Number of loads that had data forwarded from stores (Count)
system.cpu.lsq0.squashedLoads                  161444                       # Number of loads squashed (Count)
system.cpu.lsq0.ignoredResponses                   40                       # Number of memory responses ignored because the instruction is squashed (Count)
system.cpu.lsq0.memOrderViolation                  77                       # Number of memory ordering violations (Count)
system.cpu.lsq0.squashedStores                  44923                       # Number of stores squashed (Count)
system.cpu.lsq0.rescheduledLoads                 9260                       # Number of loads that were rescheduled (Count)
system.cpu.lsq0.blockedByCache                   2075                       # Number of times an access to memory failed due to the cache being blocked (Count)
system.cpu.lsq0.loadToUse::samples           25417130                       # Distribution of cycle latency between the first time a load is issued and its completion (Unspecified)
system.cpu.lsq0.loadToUse::mean              6.789514                       # Distribution of cycle latency between the first time a load is issued and its completion (Unspecified)
system.cpu.lsq0.loadToUse::stdev            23.280652                       # Distribution of cycle latency between the first time a load is issued and its completion (Unspecified)
system.cpu.lsq0.loadToUse::0-9               24476194     96.30%     96.30% # Distribution of cycle latency between the first time a load is issued and its completion (Unspecified)
system.cpu.lsq0.loadToUse::10-19                 2887      0.01%     96.31% # Distribution of cycle latency between the first time a load is issued and its completion (Unspecified)
system.cpu.lsq0.loadToUse::20-29               492455      1.94%     98.25% # Distribution of cycle latency between the first time a load is issued and its completion (Unspecified)
system.cpu.lsq0.loadToUse::30-39                 1332      0.01%     98.25% # Distribution of cycle latency between the first time a load is issued and its completion (Unspecified)
system.cpu.lsq0.loadToUse::40-49                  871      0.00%     98.26% # Distribution of cycle latency between the first time a load is issued and its completion (Unspecified)
[...]
system.mem_ctrls.dram.perBankWrBursts::10        12852                       # Per bank write bursts (Count)
system.mem_ctrls.dram.perBankWrBursts::11        12902                       # Per bank write bursts (Count)
system.mem_ctrls.dram.perBankWrBursts::12        12431                       # Per bank write bursts (Count)
system.mem_ctrls.dram.perBankWrBursts::13        12249                       # Per bank write bursts (Count)
system.mem_ctrls.dram.perBankWrBursts::14        13042                       # Per bank write bursts (Count)
system.mem_ctrls.dram.perBankWrBursts::15        12854                       # Per bank write bursts (Count)
system.mem_ctrls.dram.totQLat              3088336000                       # Total ticks spent queuing (Tick)
system.mem_ctrls.dram.totBusLat            2074500000                       # Total ticks spent in databus transfers (Tick)
system.mem_ctrls.dram.totMemAccLat        10867711000                       # Total ticks spent from burst creation until serviced by the DRAM (Tick)
system.mem_ctrls.dram.avgQLat                 7443.57                       # Average queueing delay per DRAM burst ((Tick/Count))
system.mem_ctrls.dram.avgBusLat               5000.00                       # Average bus latency per DRAM burst ((Tick/Count))
system.mem_ctrls.dram.avgMemAccLat           26193.57                       # Average memory access latency per DRAM burst ((Tick/Count))
system.mem_ctrls.dram.readRowHits              376924                       # Number of row buffer hits during reads (Count)
system.mem_ctrls.dram.writeRowHits             177612                       # Number of row buffer hits during writes (Count)
system.mem_ctrls.dram.readRowHitRate            90.85                       # Row buffer hit rate for reads (Ratio)
system.mem_ctrls.dram.writeRowHitRate           88.20                       # Row buffer hit rate for writes (Ratio)
system.mem_ctrls.dram.bytesPerActivate::samples        61718                       # Bytes accessed per row activation (Byte)
system.mem_ctrls.dram.bytesPerActivate::mean   639.001393                       # Bytes accessed per row activation (Byte)
system.mem_ctrls.dram.bytesPerActivate::gmean   484.242745                       # Bytes accessed per row activation (Byte)
system.mem_ctrls.dram.bytesPerActivate::stdev   362.353286                       # Bytes accessed per row activation (Byte)
system.mem_ctrls.dram.bytesPerActivate::0-127         5064      8.21%      8.21% # Bytes accessed per row activation (Byte)
system.mem_ctrls.dram.bytesPerActivate::128-255         6263     10.15%     18.35% # Bytes accessed per row activation (Byte)
system.mem_ctrls.dram.bytesPerActivate::256-383         7621     12.35%     30.70% # Bytes accessed per row activation (Byte)
system.mem_ctrls.dram.bytesPerActivate::384-511         4282      6.94%     37.64% # Bytes accessed per row activation (Byte)
system.mem_ctrls.dram.bytesPerActivate::512-639         5534      8.97%     46.61% # Bytes accessed per row activation (Byte)
system.mem_ctrls.dram.bytesPerActivate::640-767         3306      5.36%     51.96% # Bytes accessed per row activation (Byte)
system.mem_ctrls.dram.bytesPerActivate::768-895         4514      7.31%     59.28% # Bytes accessed per row activation (Byte)
system.mem_ctrls.dram.bytesPerActivate::896-1023         2613      4.23%     63.51% # Bytes accessed per row activation (Byte)
system.mem_ctrls.dram.bytesPerActivate::1024-1151        22521     36.49%    100.00% # Bytes accessed per row activation (Byte)
system.mem_ctrls.dram.bytesPerActivate::total        61718                       # Bytes accessed per row activation (Byte)
system.mem_ctrls.dram.bytesRead              26553600                       # Total bytes read (Byte)
system.mem_ctrls.dram.bytesWritten           12887680                       # Total bytes written (Byte)
system.mem_ctrls.dram.avgRdBW              603.860225                       # Average DRAM read bandwidth in MiBytes/s ((Byte/Second))
system.mem_ctrls.dram.avgWrBW              293.081064                       # Average DRAM write bandwidth in MiBytes/s ((Byte/Second))
system.mem_ctrls.dram.peakBW                 12800.00                       # Theoretical peak bandwidth in MiByte/s ((Byte/Second))
system.mem_ctrls.dram.busUtil                    7.01                       # Data bus utilization in percentage (Ratio)
system.mem_ctrls.dram.busUtilRead                4.72                       # Data bus utilization in percentage for reads (Ratio)
system.mem_ctrls.dram.busUtilWrite               2.29                       # Data bus utilization in percentage for writes (Ratio)
system.mem_ctrls.dram.pageHitRate               89.98                       # Row buffer hit rate, read and write combined (Ratio)
system.mem_ctrls.dram.power_state.pwrStateResidencyTicks::UNDEFINED  43973090000                       # Cumulative time (in ticks) in various power states (Tick)
system.mem_ctrls.dram.rank0.actEnergy       221411400                       # Energy for activate commands per rank (pJ) (Joule)
system.mem_ctrls.dram.rank0.preEnergy       117652590                       # Energy for precharge commands per rank (pJ) (Joule)
system.mem_ctrls.dram.rank0.readEnergy     1476830460                       # Energy for read commands per rank (pJ) (Joule)
system.mem_ctrls.dram.rank0.writeEnergy     520971660                       # Energy for write commands per rank (pJ) (Joule)
system.mem_ctrls.dram.rank0.refreshEnergy 3470872080.000000                       # Energy for refresh commands per rank (pJ) (Joule)
system.mem_ctrls.dram.rank0.actBackEnergy  16080468360                       # Energy for active background per rank (pJ) (Joule)
system.mem_ctrls.dram.rank0.preBackEnergy   3344219520                       # Energy for precharge background per rank (pJ) (Joule)
system.mem_ctrls.dram.rank0.actPowerDownEnergy            0                       # Energy for active power-down per rank (pJ) (Joule)
system.mem_ctrls.dram.rank0.prePowerDownEnergy            0                       # Energy for precharge power-down per rank (pJ) (Joule)
system.mem_ctrls.dram.rank0.selfRefreshEnergy            0                       # Energy for self refresh per rank (pJ) (Joule)
system.mem_ctrls.dram.rank0.totalEnergy   25232426070                       # Total energy per rank (pJ) (Joule)
system.mem_ctrls.dram.rank0.averagePower   573.815169                       # Core power per rank (mW) (Watt)
system.mem_ctrls.dram.rank0.totalIdleTime            0                       # Total Idle time Per DRAM Rank (Tick)
system.mem_ctrls.dram.rank0.pwrStateTime::IDLE   8525925000                       # Time in different power states (Tick)
system.mem_ctrls.dram.rank0.pwrStateTime::REF   1468220000                       # Time in different power states (Tick)
system.mem_ctrls.dram.rank0.pwrStateTime::SREF            0                       # Time in different power states (Tick)
system.mem_ctrls.dram.rank0.pwrStateTime::PRE_PDN            0                       # Time in different power states (Tick)
system.mem_ctrls.dram.rank0.pwrStateTime::ACT  33978945000                       # Time in different power states (Tick)
system.mem_ctrls.dram.rank0.pwrStateTime::ACT_PDN            0                       # Time in different power states (Tick)
system.mem_ctrls.dram.rank1.actEnergy       219369360                       # Energy for activate commands per rank (pJ) (Joule)
system.mem_ctrls.dram.rank1.preEnergy       116567220                       # Energy for precharge commands per rank (pJ) (Joule)
system.mem_ctrls.dram.rank1.readEnergy     1485555540                       # Energy for read commands per rank (pJ) (Joule)
system.mem_ctrls.dram.rank1.writeEnergy     530179740                       # Energy for write commands per rank (pJ) (Joule)
system.mem_ctrls.dram.rank1.refreshEnergy 3470872080.000000                       # Energy for refresh commands per rank (pJ) (Joule)
system.mem_ctrls.dram.rank1.actBackEnergy  16001741670                       # Energy for active background per rank (pJ) (Joule)
system.mem_ctrls.dram.rank1.preBackEnergy   3410515680                       # Energy for precharge background per rank (pJ) (Joule)
system.mem_ctrls.dram.rank1.actPowerDownEnergy            0                       # Energy for active power-down per rank (pJ) (Joule)
system.mem_ctrls.dram.rank1.prePowerDownEnergy            0                       # Energy for precharge power-down per rank (pJ) (Joule)
system.mem_ctrls.dram.rank1.selfRefreshEnergy            0                       # Energy for self refresh per rank (pJ) (Joule)
system.mem_ctrls.dram.rank1.totalEnergy   25234801290                       # Total energy per rank (pJ) (Joule)
system.mem_ctrls.dram.rank1.averagePower   573.869184                       # Core power per rank (mW) (Watt)
system.mem_ctrls.dram.rank1.totalIdleTime            0                       # Total Idle time Per DRAM Rank (Tick)
system.mem_ctrls.dram.rank1.pwrStateTime::IDLE   8702403000                       # Time in different power states (Tick)
system.mem_ctrls.dram.rank1.pwrStateTime::REF   1468220000                       # Time in different power states (Tick)
system.mem_ctrls.dram.rank1.pwrStateTime::SREF            0                       # Time in different power states (Tick)
system.mem_ctrls.dram.rank1.pwrStateTime::PRE_PDN            0                       # Time in different power states (Tick)
system.mem_ctrls.dram.rank1.pwrStateTime::ACT  33802467000                       # Time in different power states (Tick)
system.mem_ctrls.dram.rank1.pwrStateTime::ACT_PDN            0                       # Time in different power states (Tick)
system.mem_ctrls.power_state.pwrStateResidencyTicks::UNDEFINED  43973090000                       # Cumulative time (in ticks) in various power states (Tick)
system.membus.transDist::ReadResp              413440                       # Transaction distribution (Count)
system.membus.transDist::WritebackDirty        201392                       # Transaction distribution (Count)
system.membus.transDist::CleanEvict            209467                       # Transaction distribution (Count)
system.membus.transDist::ReadExReq               1479                       # Transaction distribution (Count)
system.membus.transDist::ReadExResp              1479                       # Transaction distribution (Count)
system.membus.transDist::ReadSharedReq         413440                       # Transaction distribution (Count)
system.membus.transDist::InvalidateReq            145                       # Transaction distribution (Count)
system.membus.pktCount_system.l2.mem_side_port::system.mem_ctrls.port      1240842                       # Packet count per connected requestor and responder (Count)
system.membus.pktCount::total                 1240842                       # Packet count per connected requestor and responder (Count)
system.membus.pktSize_system.l2.mem_side_port::system.mem_ctrls.port     39443904                       # Cumulative packet size per connected requestor and responder (Byte)
system.membus.pktSize::total                 39443904                       # Cumulative packet size per connected requestor and responder (Byte)
system.membus.snoops                                0                       # Total snoops (Count)
system.membus.snoopTraffic                          0                       # Total snoop traffic (Byte)
system.membus.snoopFanout::samples             415064                       # Request fanout histogram (Count)
system.membus.snoopFanout::mean                     0                       # Request fanout histogram (Count)
system.membus.snoopFanout::stdev                    0                       # Request fanout histogram (Count)
system.membus.snoopFanout::underflows               0      0.00%      0.00% # Request fanout histogram (Count)
system.membus.snoopFanout::0                   415064    100.00%    100.00% # Request fanout histogram (Count)
system.membus.snoopFanout::1                        0      0.00%    100.00% # Request fanout histogram (Count)
system.membus.snoopFanout::overflows                0      0.00%    100.00% # Request fanout histogram (Count)
system.membus.snoopFanout::min_value                0                       # Request fanout histogram (Count)
system.membus.snoopFanout::max_value                0                       # Request fanout histogram (Count)
system.membus.snoopFanout::total               415064                       # Request fanout histogram (Count)
system.membus.power_state.pwrStateResidencyTicks::UNDEFINED  43973090000                       # Cumulative time (in ticks) in various power states (Tick)
system.membus.reqLayer0.occupancy          1698199000                       # Layer occupancy (ticks) (Tick)
system.membus.reqLayer0.utilization               0.0                       # Layer utilization (Ratio)
system.membus.respLayer1.occupancy         2186635500                       # Layer occupancy (ticks) (Tick)
system.membus.respLayer1.utilization              0.0                       # Layer utilization (Ratio)
system.membus.snoop_filter.totRequests         825923                       # Total number of requests made to the snoop filter. (Count)
system.membus.snoop_filter.hitSingleRequests       410859                       # Number of requests hitting in the snoop filter with a single holder of the requested data. (Count)
system.membus.snoop_filter.hitMultiRequests            0                       # Number of requests hitting in the snoop filter with multiple (>1) holders of the requested data. (Count)
system.membus.snoop_filter.totSnoops                0                       # Total number of snoops made to the snoop filter. (Count)
system.membus.snoop_filter.hitSingleSnoops            0                       # Number of snoops hitting in the snoop filter with a single holder of the requested data. (Count)
system.membus.snoop_filter.hitMultiSnoops            0                       # Number of snoops hitting in the snoop filter with multiple (>1) holders of the requested data. (Count)
system.tol2bus.transDist::ReadResp             901942                       # Transaction distribution (Count)
system.tol2bus.transDist::WritebackDirty       889057                       # Transaction distribution (Count)
system.tol2bus.transDist::WritebackClean         1772                       # Transaction distribution (Count)
system.tol2bus.transDist::CleanEvict           423603                       # Transaction distribution (Count)
system.tol2bus.transDist::ReadExReq              2117                       # Transaction distribution (Count)
system.tol2bus.transDist::ReadExResp             2117                       # Transaction distribution (Count)
system.tol2bus.transDist::ReadCleanReq           2029                       # Transaction distribution (Count)
system.tol2bus.transDist::ReadSharedReq        899914                       # Transaction distribution (Count)
system.tol2bus.transDist::InvalidateReq           146                       # Transaction distribution (Count)
system.tol2bus.transDist::InvalidateResp          146                       # Transaction distribution (Count)
system.tol2bus.pktCount_system.cpu.icache.mem_side_port::system.l2.cpu_side_port         5829                       # Packet count per connected requestor and responder (Count)
system.tol2bus.pktCount_system.cpu.dcache.mem_side_port::system.l2.cpu_side_port      2705507                       # Packet count per connected requestor and responder (Count)
system.tol2bus.pktCount::total                2711336                       # Packet count per connected requestor and responder (Count)
system.tol2bus.pktSize_system.cpu.icache.mem_side_port::system.l2.cpu_side_port       243200                       # Cumulative packet size per connected requestor and responder (Byte)
system.tol2bus.pktSize_system.cpu.dcache.mem_side_port::system.l2.cpu_side_port    101740480                       # Cumulative packet size per connected requestor and responder (Byte)
system.tol2bus.pktSize::total               101983680                       # Cumulative packet size per connected requestor and responder (Byte)
system.tol2bus.snoops                          411507                       # Total snoops (Count)
system.tol2bus.snoopTraffic                  12889152                       # Total snoop traffic (Byte)
system.tol2bus.snoopFanout::samples           1315713                       # Request fanout histogram (Count)
system.tol2bus.snoopFanout::mean             0.000896                       # Request fanout histogram (Count)
system.tol2bus.snoopFanout::stdev            0.029921                       # Request fanout histogram (Count)
system.tol2bus.snoopFanout::underflows              0      0.00%      0.00% # Request fanout histogram (Count)
system.tol2bus.snoopFanout::0                 1314534     99.91%     99.91% # Request fanout histogram (Count)
system.tol2bus.snoopFanout::1                    1179      0.09%    100.00% # Request fanout histogram (Count)
system.tol2bus.snoopFanout::2                       0      0.00%    100.00% # Request fanout histogram (Count)
system.tol2bus.snoopFanout::overflows               0      0.00%    100.00% # Request fanout histogram (Count)
system.tol2bus.snoopFanout::min_value               0                       # Request fanout histogram (Count)
system.tol2bus.snoopFanout::max_value               1                       # Request fanout histogram (Count)
system.tol2bus.snoopFanout::total             1315713                       # Request fanout histogram (Count)
system.tol2bus.power_state.pwrStateResidencyTicks::UNDEFINED  43973090000                       # Cumulative time (in ticks) in various power states (Tick)
system.tol2bus.reqLayer0.occupancy         1593001500                       # Layer occupancy (ticks) (Tick)
system.tol2bus.reqLayer0.utilization              0.0                       # Layer utilization (Ratio)
system.tol2bus.respLayer0.occupancy           3043497                       # Layer occupancy (ticks) (Tick)
system.tol2bus.respLayer0.utilization             0.0                       # Layer utilization (Ratio)
system.tol2bus.respLayer1.occupancy        1353119500                       # Layer occupancy (ticks) (Tick)
system.tol2bus.respLayer1.utilization             0.0                       # Layer utilization (Ratio)
system.tol2bus.snoop_filter.totRequests       1807131                       # Total number of requests made to the snoop filter. (Count)
system.tol2bus.snoop_filter.hitSingleRequests       902925                       # Number of requests hitting in the snoop filter with a single holder of the requested data. (Count)
system.tol2bus.snoop_filter.hitMultiRequests            1                       # Number of requests hitting in the snoop filter with multiple (>1) holders of the requested data. (Count)
system.tol2bus.snoop_filter.totSnoops            1178                       # Total number of snoops made to the snoop filter. (Count)
system.tol2bus.snoop_filter.hitSingleSnoops         1178                       # Number of snoops hitting in the snoop filter with a single holder of the requested data. (Count)
system.tol2bus.snoop_filter.hitMultiSnoops            0                       # Number of snoops hitting in the snoop filter with multiple (>1) holders of the requested data. (Count)
system.voltage_domain.voltage                       1                       # Voltage in Volts (Volt)
system.workload.inst.arm                            0                       # number of arm instructions executed (Count)
system.workload.inst.quiesce                        0                       # number of quiesce instructions executed (Count)

---------- End Simulation Statistics   ----------
