
---------- Begin Simulation Statistics ----------
simSeconds                                   0.087849                       # Number of seconds simulated (Second)
simTicks                                  87849192000                       # Number of ticks simulated (Tick)
finalTick                                 87849192000                       # Number of ticks from beginning of simulation (restored from checkpoints and never reset) (Tick)
simFreq                                  1000000000000                       # The number of ticks per simulated second ((Tick/Second))
hostSeconds                                    683.91                       # Real time elapsed on the host (Second)
hostTickRate                                128452214                       # The number of ticks simulated per host second (ticks/s) ((Tick/Second))
hostMemory                                     681144                       # Number of bytes of host memory used (Byte)
simInsts                                    212904947                       # Number of instructions simulated (Count)
simOps                                      213176042                       # Number of ops (including micro ops) simulated (Count)
hostInstRate                                   311307                       # Simulator instruction rate (inst/s) ((Count/Second))
hostOpRate                                     311704                       # Simulator op (including micro ops) rate (op/s) ((Count/Second))
system.clk_domain.clock                          1000                       # Clock period in ticks (Tick)
system.cpu.numCycles                        175698385                       # Number of cpu cycles simulated (Cycle)
system.cpu.numWorkItemsStarted                      0                       # Number of work items this cpu started (Count)
system.cpu.numWorkItemsCompleted                    0                       # Number of work items this cpu completed (Count)
system.cpu.instsAdded                       214747059                       # Number of instructions added to the IQ (excludes non-spec) (Count)
system.cpu.nonSpecInstsAdded                      400                       # Number of non-speculative instructions added to the IQ (Count)
system.cpu.instsIssued                      214128174                       # Number of instructions issued (Count)
system.cpu.squashedInstsIssued                  41571                       # Number of squashed instructions issued (Count)
system.cpu.squashedInstsExamined              1571416                       # Number of squashed instructions iterated over during squash; mainly for profiling (Count)
system.cpu.squashedOperandsExamined           1560271                       # Number of squashed operands that are examined and possibly removed from graph (Count)
system.cpu.squashedNonSpecRemoved                 127                       # Number of squashed non-spec instructions that were removed (Count)
system.cpu.numIssuedDist::samples           175560740                       # Number of insts issued each cycle (Count)
system.cpu.numIssuedDist::mean               1.219681                       # Number of insts issued each cycle (Count)
system.cpu.numIssuedDist::stdev              1.273899                       # Number of insts issued each cycle (Count)
system.cpu.numIssuedDist::underflows                0      0.00%      0.00% # Number of insts issued each cycle (Count)
system.cpu.numIssuedDist::0                  67861847     38.65%     38.65% # Number of insts issued each cycle (Count)
system.cpu.numIssuedDist::1                  44097986     25.12%     63.77% # Number of insts issued each cycle (Count)
system.cpu.numIssuedDist::2                  34632961     19.73%     83.50% # Number of insts issued each cycle (Count)
system.cpu.numIssuedDist::3                  17351101      9.88%     93.38% # Number of insts issued each cycle (Count)
system.cpu.numIssuedDist::4                   9850584      5.61%     98.99% # Number of insts issued each cycle (Count)
system.cpu.numIssuedDist::5                   1388243      0.79%     99.78% # Number of insts issued each cycle (Count)
system.cpu.numIssuedDist::6                    312024      0.18%     99.96% # Number of insts issued each cycle (Count)
system.cpu.numIssuedDist::7                     32684      0.02%     99.98% # Number of insts issued each cycle (Count)
system.cpu.numIssuedDist::8                     33310      0.02%    100.00% # Number of insts issued each cycle (Count)
system.cpu.numIssuedDist::overflows                 0      0.00%    100.00% # Number of insts issued each cycle (Count)
system.cpu.numIssuedDist::min_value                 0                       # Number of insts issued each cycle (Count)
system.cpu.numIssuedDist::max_value                 8                       # Number of insts issued each cycle (Count)
system.cpu.numIssuedDist::total             175560740                       # Number of insts issued each cycle (Count)
system.cpu.statFuBusy::No_OpClass                   0      0.00%      0.00% # attempts to use FU when none available (Count)
system.cpu.statFuBusy::IntAlu                   19119      0.01%      0.01% # attempts to use FU when none available (Count)
system.cpu.statFuBusy::IntMult               14386388      8.29%      8.30% # attempts to use FU when none available (Count)
system.cpu.statFuBusy::IntDiv               159089272     91.68%     99.98% # attempts to use FU when none available (Count)
system.cpu.statFuBusy::FloatAdd                     0      0.00%     99.98% # attempts to use FU when none available (Count)
system.cpu.statFuBusy::FloatCmp                     0      0.00%     99.98% # attempts to use FU when none available (Count)
system.cpu.statFuBusy::FloatCvt                     0      0.00%     99.98% # attempts to use FU when none available (Count)
system.cpu.statFuBusy::FloatMult                    0      0.00%     99.98% # attempts to use FU when none available (Count)
system.cpu.statFuBusy::FloatMultAcc                 0      0.00%     99.98% # attempts to use FU when none available (Count)
system.cpu.statFuBusy::FloatDiv                     0      0.00%     99.98% # attempts to use FU when none available (Count)
system.cpu.statFuBusy::FloatMisc                    0      0.00%     99.98% # attempts to use FU when none available (Count)
system.cpu.statFuBusy::FloatSqrt                    0      0.00%     99.98% # attempts to use FU when none available (Count)
system.cpu.statFuBusy::SimdAdd                      0      0.00%     99.98% # attempts to use FU when none available (Count)
system.cpu.statFuBusy::SimdAddAcc                   0      0.00%     99.98% # attempts to use FU when none available (Count)
system.cpu.statFuBusy::SimdAlu                     17      0.00%     99.98% # attempts to use FU when none available (Count)
system.cpu.statFuBusy::SimdCmp                     15      0.00%     99.98% # attempts to use FU when none available (Count)
system.cpu.statFuBusy::SimdCvt                      0      0.00%     99.98% # attempts to use FU when none available (Count)
system.cpu.statFuBusy::SimdMisc                     0      0.00%     99.98% # attempts to use FU when none available (Count)
system.cpu.statFuBusy::SimdMult                     0      0.00%     99.98% # attempts to use FU when none available (Count)
system.cpu.statFuBusy::SimdMultAcc                  0      0.00%     99.98% # attempts to use FU when none available (Count)
system.cpu.statFuBusy::SimdShift                    0      0.00%     99.98% # attempts to use FU when none available (Count)
system.cpu.statFuBusy::SimdShiftAcc                 0      0.00%     99.98% # attempts to use FU when none available (Count)
system.cpu.statFuBusy::SimdDiv                      0      0.00%     99.98% # attempts to use FU when none available (Count)
system.cpu.statFuBusy::SimdSqrt                     0      0.00%     99.98% # attempts to use FU when none available (Count)
system.cpu.statFuBusy::SimdFloatAdd                 0      0.00%     99.98% # attempts to use FU when none available (Count)
system.cpu.statFuBusy::SimdFloatAlu                 0      0.00%     99.98% # attempts to use FU when none available (Count)
system.cpu.statFuBusy::SimdFloatCmp                 0      0.00%     99.98% # attempts to use FU when none available (Count)
system.cpu.statFuBusy::SimdFloatCvt                 0      0.00%     99.98% # attempts to use FU when none available (Count)
system.cpu.statFuBusy::SimdFloatDiv                 0      0.00%     99.98% # attempts to use FU when none available (Count)
system.cpu.statFuBusy::SimdFloatMisc                0      0.00%     99.98% # attempts to use FU when none available (Count)
system.cpu.statFuBusy::SimdFloatMult                0      0.00%     99.98% # attempts to use FU when none available (Count)
system.cpu.statFuBusy::SimdFloatMultAcc             0      0.00%     99.98% # attempts to use FU when none available (Count)
system.cpu.statFuBusy::SimdFloatSqrt                0      0.00%     99.98% # attempts to use FU when none available (Count)
system.cpu.statFuBusy::SimdReduceAdd                0      0.00%     99.98% # attempts to use FU when none available (Count)
system.cpu.statFuBusy::SimdReduceAlu                0      0.00%     99.98% # attempts to use FU when none available (Count)
system.cpu.statFuBusy::SimdReduceCmp                0      0.00%     99.98% # attempts to use FU when none available (Count)
system.cpu.statFuBusy::SimdFloatReduceAdd            0      0.00%     99.98% # attempts to use FU when none available (Count)
system.cpu.statFuBusy::SimdFloatReduceCmp            0      0.00%     99.98% # attempts to use FU when none available (Count)
system.cpu.statFuBusy::SimdAes                      0      0.00%     99.98% # attempts to use FU when none available (Count)
system.cpu.statFuBusy::SimdAesMix                   0      0.00%     99.98% # attempts to use FU when none available (Count)
system.cpu.statFuBusy::SimdSha1Hash                 0      0.00%     99.98% # attempts to use FU when none available (Count)
system.cpu.statFuBusy::SimdSha1Hash2                0      0.00%     99.98% # attempts to use FU when none available (Count)
system.cpu.statFuBusy::SimdSha256Hash               0      0.00%     99.98% # attempts to use FU when none available (Count)
system.cpu.statFuBusy::SimdSha256Hash2              0      0.00%     99.98% # attempts to use FU when none available (Count)
system.cpu.statFuBusy::SimdShaSigma2                0      0.00%     99.98% # attempts to use FU when none available (Count)
system.cpu.statFuBusy::SimdShaSigma3                0      0.00%     99.98% # attempts to use FU when none available (Count)
system.cpu.statFuBusy::SimdPredAlu                  0      0.00%     99.98% # attempts to use FU when none available (Count)
system.cpu.statFuBusy::MemRead                  23332      0.01%     99.99% # attempts to use FU when none available (Count)
system.cpu.statFuBusy::MemWrite                 14919      0.01%    100.00% # attempts to use FU when none available (Count)
system.cpu.statFuBusy::FloatMemRead                 0      0.00%    100.00% # attempts to use FU when none available (Count)
system.cpu.statFuBusy::FloatMemWrite                0      0.00%    100.00% # attempts to use FU when none available (Count)
system.cpu.statFuBusy::IprAccess                    0      0.00%    100.00% # attempts to use FU when none available (Count)
system.cpu.statFuBusy::InstPrefetch                 0      0.00%    100.00% # attempts to use FU when none available (Count)
system.cpu.statIssuedInstType_0::No_OpClass          863      0.00%      0.00% # Number of instructions issued per FU type, per thread (Count)
system.cpu.statIssuedInstType_0::IntAlu     153557304     71.71%     71.71% # Number of instructions issued per FU type, per thread (Count)
system.cpu.statIssuedInstType_0::IntMult     16000036      7.47%     79.19% # Number of instructions issued per FU type, per thread (Count)
system.cpu.statIssuedInstType_0::IntDiv      16014377      7.48%     86.66% # Number of instructions issued per FU type, per thread (Count)
system.cpu.statIssuedInstType_0::FloatAdd            0      0.00%     86.66% # Number of instructions issued per FU type, per thread (Count)
system.cpu.statIssuedInstType_0::FloatCmp            0      0.00%     86.66% # Number of instructions issued per FU type, per thread (Count)
system.cpu.statIssuedInstType_0::FloatCvt            0      0.00%     86.66% # Number of instructions issued per FU type, per thread (Count)
system.cpu.statIssuedInstType_0::FloatMult            0      0.00%     86.66% # Number of instructions issued per FU type, per thread (Count)
system.cpu.statIssuedInstType_0::FloatMultAcc            0      0.00%     86.66% # Number of instructions issued per FU type, per thread (Count)
system.cpu.statIssuedInstType_0::FloatDiv            0      0.00%     86.66% # Number of instructions issued per FU type, per thread (Count)
system.cpu.statIssuedInstType_0::FloatMisc            2      0.00%     86.66% # Number of instructions issued per FU type, per thread (Count)
system.cpu.statIssuedInstType_0::FloatSqrt            0      0.00%     86.66% # Number of instructions issued per FU type, per thread (Count)
system.cpu.statIssuedInstType_0::SimdAdd       802992      0.38%     87.04% # Number of instructions issued per FU type, per thread (Count)
system.cpu.statIssuedInstType_0::SimdAddAcc            0      0.00%     87.04% # Number of instructions issued per FU type, per thread (Count)
system.cpu.statIssuedInstType_0::SimdAlu          204      0.00%     87.04% # Number of instructions issued per FU type, per thread (Count)
system.cpu.statIssuedInstType_0::SimdCmp          117      0.00%     87.04% # Number of instructions issued per FU type, per thread (Count)
system.cpu.statIssuedInstType_0::SimdCvt            0      0.00%     87.04% # Number of instructions issued per FU type, per thread (Count)
system.cpu.statIssuedInstType_0::SimdMisc       803024      0.38%     87.41% # Number of instructions issued per FU type, per thread (Count)
system.cpu.statIssuedInstType_0::SimdMult            0      0.00%     87.41% # Number of instructions issued per FU type, per thread (Count)
system.cpu.statIssuedInstType_0::SimdMultAcc            0      0.00%     87.41% # Number of instructions issued per FU type, per thread (Count)
system.cpu.statIssuedInstType_0::SimdShift            0      0.00%     87.41% # Number of instructions issued per FU type, per thread (Count)
system.cpu.statIssuedInstType_0::SimdShiftAcc            0      0.00%     87.41% # Number of instructions issued per FU type, per thread (Count)
system.cpu.statIssuedInstType_0::SimdDiv            0      0.00%     87.41% # Number of instructions issued per FU type, per thread (Count)
system.cpu.statIssuedInstType_0::SimdSqrt            0      0.00%     87.41% # Number of instructions issued per FU type, per thread (Count)
system.cpu.statIssuedInstType_0::SimdFloatAdd            0      0.00%     87.41% # Number of instructions issued per FU type, per thread (Count)
system.cpu.statIssuedInstType_0::SimdFloatAlu            0      0.00%     87.41% # Number of instructions issued per FU type, per thread (Count)
system.cpu.statIssuedInstType_0::SimdFloatCmp            0      0.00%     87.41% # Number of instructions issued per FU type, per thread (Count)
system.cpu.statIssuedInstType_0::SimdFloatCvt            0      0.00%     87.41% # Number of instructions issued per FU type, per thread (Count)
system.cpu.statIssuedInstType_0::SimdFloatDiv            0      0.00%     87.41% # Number of instructions issued per FU type, per thread (Count)
system.cpu.statIssuedInstType_0::SimdFloatMisc            0      0.00%     87.41% # Number of instructions issued per FU type, per thread (Count)
system.cpu.statIssuedInstType_0::SimdFloatMult            0      0.00%     87.41% # Number of instructions issued per FU type, per thread (Count)
system.cpu.statIssuedInstType_0::SimdFloatMultAcc            0      0.00%     87.41% # Number of instructions issued per FU type, per thread (Count)
system.cpu.statIssuedInstType_0::SimdFloatSqrt            0      0.00%     87.41% # Number of instructions issued per FU type, per thread (Count)
system.cpu.statIssuedInstType_0::SimdReduceAdd            0      0.00%     87.41% # Number of instructions issued per FU type, per thread (Count)
system.cpu.statIssuedInstType_0::SimdReduceAlu            0      0.00%     87.41% # Number of instructions issued per FU type, per thread (Count)
system.cpu.statIssuedInstType_0::SimdReduceCmp            0      0.00%     87.41% # Number of instructions issued per FU type, per thread (Count)
system.cpu.statIssuedInstType_0::SimdFloatReduceAdd            0      0.00%     87.41% # Number of instructions issued per FU type, per thread (Count)
system.cpu.statIssuedInstType_0::SimdFloatReduceCmp            0      0.00%     87.41% # Number of instructions issued per FU type, per thread (Count)
system.cpu.statIssuedInstType_0::SimdAes            0      0.00%     87.41% # Number of instructions issued per FU type, per thread (Count)
system.cpu.statIssuedInstType_0::SimdAesMix            0      0.00%     87.41% # Number of instructions issued per FU type, per thread (Count)
system.cpu.statIssuedInstType_0::SimdSha1Hash            0      0.00%     87.41% # Number of instructions issued per FU type, per thread (Count)
system.cpu.statIssuedInstType_0::SimdSha1Hash2            0      0.00%     87.41% # Number of instructions issued per FU type, per thread (Count)
system.cpu.statIssuedInstType_0::SimdSha256Hash            0      0.00%     87.41% # Number of instructions issued per FU type, per thread (Count)
system.cpu.statIssuedInstType_0::SimdSha256Hash2            0      0.00%     87.41% # Number of instructions issued per FU type, per thread (Count)
system.cpu.statIssuedInstType_0::SimdShaSigma2            0      0.00%     87.41% # Number of instructions issued per FU type, per thread (Count)
system.cpu.statIssuedInstType_0::SimdShaSigma3            0      0.00%     87.41% # Number of instructions issued per FU type, per thread (Count)
system.cpu.statIssuedInstType_0::SimdPredAlu            0      0.00%     87.41% # Number of instructions issued per FU type, per thread (Count)
system.cpu.statIssuedInstType_0::MemRead     14038373      6.56%     93.97% # Number of instructions issued per FU type, per thread (Count)
system.cpu.statIssuedInstType_0::MemWrite     12910882      6.03%    100.00% # Number of instructions issued per FU type, per thread (Count)
system.cpu.statIssuedInstType_0::FloatMemRead            0      0.00%    100.00% # Number of instructions issued per FU type, per thread (Count)
system.cpu.statIssuedInstType_0::FloatMemWrite            0      0.00%    100.00% # Number of instructions issued per FU type, per thread (Count)
system.cpu.statIssuedInstType_0::IprAccess            0      0.00%    100.00% # Number of instructions issued per FU type, per thread (Count)
system.cpu.statIssuedInstType_0::InstPrefetch            0      0.00%    100.00% # Number of instructions issued per FU type, per thread (Count)
system.cpu.statIssuedInstType_0::total      214128174                       # Number of instructions issued per FU type, per thread (Count)
system.cpu.issueRate                         1.218726                       # Inst issue rate ((Count/Cycle))
system.cpu.fuBusy                           173533062                       # FU busy when requested (Count)
system.cpu.fuBusyRate                        0.810417                       # FU busy rate (busy events/executed inst) ((Count/Count))
system.cpu.intInstQueueReads                772559373                       # Number of integer instruction queue reads (Count)
system.cpu.intInstQueueWrites               213864920                       # Number of integer instruction queue writes (Count)
system.cpu.intInstQueueWakeupAccesses       211584337                       # Number of integer instruction queue wakeup accesses (Count)
system.cpu.fpInstQueueReads                         0                       # Number of floating instruction queue reads (Count)
system.cpu.fpInstQueueWrites                        0                       # Number of floating instruction queue writes (Count)
system.cpu.fpInstQueueWakeupAccesses                0                       # Number of floating instruction queue wakeup accesses (Count)
system.cpu.vecInstQueueReads                  4832348                       # Number of vector instruction queue reads (Count)
system.cpu.vecInstQueueWrites                 2457741                       # Number of vector instruction queue writes (Count)
system.cpu.vecInstQueueWakeupAccesses         2412061                       # Number of vector instruction queue wakeup accesses (Count)
system.cpu.intAluAccesses                   385243976                       # Number of integer alu accesses (Count)
system.cpu.fpAluAccesses                            0                       # Number of floating point alu accesses (Count)
system.cpu.vecAluAccesses                     2416397                       # Number of vector alu accesses (Count)
system.cpu.numInsts                         214065229                       # Number of executed instructions (Count)
system.cpu.numLoadInsts                      14023261                       # Number of load instructions executed (Count)
system.cpu.numSquashedInsts                     62945                       # Number of squashed instructions skipped in execute (Count)
system.cpu.numSwp                                   0                       # Number of swp insts executed (Count)
system.cpu.numNop                              817389                       # Number of nop insts executed (Count)
system.cpu.numRefs                           26932575                       # Number of memory reference insts executed (Count)
system.cpu.numBranches                       37281143                       # Number of branches executed (Count)
system.cpu.numStoreInsts                     12909314                       # Number of stores executed (Count)
system.cpu.numRate                           1.218368                       # Inst execution rate ((Count/Cycle))
system.cpu.timesIdled                            1450                       # Number of times that the entire CPU went into an idle state and unscheduled itself (Count)
system.cpu.idleCycles                          137645                       # Total number of cycles that the CPU has spent unscheduled due to idling (Cycle)
system.cpu.committedInsts                   212904947                       # Number of Instructions Simulated (Count)
system.cpu.committedOps                     213176042                       # Number of Ops (including micro ops) Simulated (Count)
system.cpu.cpi                               0.825243                       # CPI: Cycles Per Instruction ((Cycle/Count))
system.cpu.totalCpi                          0.825243                       # CPI: Total CPI of All Threads ((Cycle/Count))
system.cpu.ipc                               1.211764                       # IPC: Instructions Per Cycle ((Count/Cycle))
system.cpu.totalIpc                          1.211764                       # IPC: Total IPC of All Threads ((Count/Cycle))
system.cpu.intRegfileReads                  319454105                       # Number of integer regfile reads (Count)
system.cpu.intRegfileWrites                 109261139                       # Number of integer regfile writes (Count)
system.cpu.vecRegfileReads                    3215878                       # number of vector regfile reads (Count)
system.cpu.ccRegfileReads                   159059355                       # number of cc regfile reads (Count)
system.cpu.ccRegfileWrites                  159076020                       # number of cc regfile writes (Count)
system.cpu.miscRegfileReads                  17993851                       # number of misc regfile reads (Count)
system.cpu.miscRegfileWrites                      213                       # number of misc regfile writes (Count)
system.cpu.MemDepUnit__0.insertedLoads       14057364                       # Number of loads inserted to the mem dependence unit. (Count)
system.cpu.MemDepUnit__0.insertedStores      12946507                       # Number of stores inserted to the mem dependence unit. (Count)
system.cpu.MemDepUnit__0.conflictingLoads     12721380                       # Number of conflicting loads. (Count)
system.cpu.MemDepUnit__0.conflictingStores     12722764                       # Number of conflicting stores. (Count)
system.cpu.MemDepUnit__1.insertedLoads              0                       # Number of loads inserted to the mem dependence unit. (Count)
system.cpu.MemDepUnit__1.insertedStores             0                       # Number of stores inserted to the mem dependence unit. (Count)
system.cpu.MemDepUnit__1.conflictingLoads            0                       # Number of conflicting loads. (Count)
system.cpu.MemDepUnit__1.conflictingStores            0                       # Number of conflicting stores. (Count)
system.cpu.MemDepUnit__2.insertedLoads              0                       # Number of loads inserted to the mem dependence unit. (Count)
system.cpu.MemDepUnit__2.insertedStores             0                       # Number of stores inserted to the mem dependence unit. (Count)
system.cpu.MemDepUnit__2.conflictingLoads            0                       # Number of conflicting loads. (Count)
system.cpu.MemDepUnit__2.conflictingStores            0                       # Number of conflicting stores. (Count)
system.cpu.MemDepUnit__3.insertedLoads              0                       # Number of loads inserted to the mem dependence unit. (Count)
system.cpu.MemDepUnit__3.insertedStores             0                       # Number of stores inserted to the mem dependence unit. (Count)
system.cpu.MemDepUnit__3.conflictingLoads            0                       # Number of conflicting loads. (Count)
system.cpu.MemDepUnit__3.conflictingStores            0                       # Number of conflicting stores. (Count)
system.cpu.branchPred.lookups                37603793                       # Number of BP lookups (Count)
system.cpu.branchPred.condPredicted          37529359                       # Number of conditional branches predicted (Count)
system.cpu.branchPred.condIncorrect             29881                       # Number of conditional branches incorrect (Count)
system.cpu.branchPred.BTBLookups             13296084                       # Number of BTB lookups (Count)
system.cpu.branchPred.BTBUpdates                 7983                       # Number of BTB updates (Count)
system.cpu.branchPred.BTBHits                13293249                       # Number of BTB hits (Count)
system.cpu.branchPred.BTBHitRatio            0.999787                       # BTB Hit Ratio (Ratio)
system.cpu.branchPred.RASUsed                   17519                       # Number of times the RAS was used to get a target. (Count)
system.cpu.branchPred.RASIncorrect                 41                       # Number of incorrect RAS predictions. (Count)
system.cpu.branchPred.indirectLookups            6671                       # Number of indirect predictor lookups. (Count)
system.cpu.branchPred.indirectHits               1340                       # Number of indirect target hits. (Count)
system.cpu.branchPred.indirectMisses             5331                       # Number of indirect misses. (Count)
system.cpu.branchPred.indirectMispredicted          668                       # Number of mispredicted indirect branches. (Count)
system.cpu.commit.commitSquashedInsts         1573261                       # The number of squashed insts skipped by commit (Count)
system.cpu.commit.commitNonSpecStalls             273                       # The number of times commit has been forced to stall to communicate backwards (Count)
system.cpu.commit.branchMispredicts             29761                       # The number of times a branch was mispredicted (Count)
system.cpu.commit.numCommittedDist::samples    175338924                       # Number of insts commited each cycle (Count)
system.cpu.commit.numCommittedDist::mean     1.220414                       # Number of insts commited each cycle (Count)
system.cpu.commit.numCommittedDist::stdev     2.244389                       # Number of insts commited each cycle (Count)
system.cpu.commit.numCommittedDist::underflows            0      0.00%      0.00% # Number of insts commited each cycle (Count)
system.cpu.commit.numCommittedDist::0       101608012     57.95%     57.95% # Number of insts commited each cycle (Count)
system.cpu.commit.numCommittedDist::1        39580005     22.57%     80.52% # Number of insts commited each cycle (Count)
system.cpu.commit.numCommittedDist::2         3643869      2.08%     82.60% # Number of insts commited each cycle (Count)
system.cpu.commit.numCommittedDist::3        13927122      7.94%     90.54% # Number of insts commited each cycle (Count)
system.cpu.commit.numCommittedDist::4          795703      0.45%     91.00% # Number of insts commited each cycle (Count)
system.cpu.commit.numCommittedDist::5           46715      0.03%     91.02% # Number of insts commited each cycle (Count)
system.cpu.commit.numCommittedDist::6         1737358      0.99%     92.02% # Number of insts commited each cycle (Count)
system.cpu.commit.numCommittedDist::7          504620      0.29%     92.30% # Number of insts commited each cycle (Count)
system.cpu.commit.numCommittedDist::8        13495520      7.70%    100.00% # Number of insts commited each cycle (Count)
system.cpu.commit.numCommittedDist::overflows            0      0.00%    100.00% # Number of insts commited each cycle (Count)
system.cpu.commit.numCommittedDist::min_value            0                       # Number of insts commited each cycle (Count)
system.cpu.commit.numCommittedDist::max_value            8                       # Number of insts commited each cycle (Count)
system.cpu.commit.numCommittedDist::total    175338924                       # Number of insts commited each cycle (Count)
system.cpu.commit.instsCommitted            213715049                       # Number of instructions committed (Count)
system.cpu.commit.opsCommitted              213986144                       # Number of ops (including micro ops) committed (Count)
system.cpu.commit.memRefs                    26754202                       # Number of memory references committed (Count)
system.cpu.commit.loads                      13892472                       # Number of loads committed (Count)
system.cpu.commit.amos                            106                       # Number of atomic instructions committed (Count)
system.cpu.commit.membars                         114                       # Number of memory barriers committed (Count)
system.cpu.commit.branches                   37107163                       # Number of branches committed (Count)
system.cpu.commit.vectorInstructions          2411455                       # Number of committed Vector instructions. (Count)
system.cpu.commit.floating                          0                       # Number of committed floating point instructions. (Count)
system.cpu.commit.integer                   175481827                       # Number of committed integer instructions. (Count)
system.cpu.commit.functionCalls                 11005                       # Number of function calls committed. (Count)
system.cpu.commit.committedInstType_0::No_OpClass          129      0.00%      0.00% # Class of committed instruction (Count)
system.cpu.commit.committedInstType_0::IntAlu    153675518     71.82%     71.82% # Class of committed instruction (Count)
system.cpu.commit.committedInstType_0::IntMult     15977372      7.47%     79.28% # Class of committed instruction (Count)
system.cpu.commit.committedInstType_0::IntDiv     15972871      7.46%     86.75% # Class of committed instruction (Count)
system.cpu.commit.committedInstType_0::FloatAdd            0      0.00%     86.75% # Class of committed instruction (Count)
system.cpu.commit.committedInstType_0::FloatCmp            0      0.00%     86.75% # Class of committed instruction (Count)
system.cpu.commit.committedInstType_0::FloatCvt            0      0.00%     86.75% # Class of committed instruction (Count)
system.cpu.commit.committedInstType_0::FloatMult            0      0.00%     86.75% # Class of committed instruction (Count)
system.cpu.commit.committedInstType_0::FloatMultAcc            0      0.00%     86.75% # Class of committed instruction (Count)
system.cpu.commit.committedInstType_0::FloatDiv            0      0.00%     86.75% # Class of committed instruction (Count)
system.cpu.commit.committedInstType_0::FloatMisc            2      0.00%     86.75% # Class of committed instruction (Count)
system.cpu.commit.committedInstType_0::FloatSqrt            0      0.00%     86.75% # Class of committed instruction (Count)
system.cpu.commit.committedInstType_0::SimdAdd       802891      0.38%     87.12% # Class of committed instruction (Count)
system.cpu.commit.committedInstType_0::SimdAddAcc            0      0.00%     87.12% # Class of committed instruction (Count)
system.cpu.commit.committedInstType_0::SimdAlu          151      0.00%     87.12% # Class of committed instruction (Count)
system.cpu.commit.committedInstType_0::SimdCmp           93      0.00%     87.12% # Class of committed instruction (Count)
system.cpu.commit.committedInstType_0::SimdCvt            0      0.00%     87.12% # Class of committed instruction (Count)
system.cpu.commit.committedInstType_0::SimdMisc       802915      0.38%     87.50% # Class of committed instruction (Count)
system.cpu.commit.committedInstType_0::SimdMult            0      0.00%     87.50% # Class of committed instruction (Count)
system.cpu.commit.committedInstType_0::SimdMultAcc            0      0.00%     87.50% # Class of committed instruction (Count)
system.cpu.commit.committedInstType_0::SimdShift            0      0.00%     87.50% # Class of committed instruction (Count)
system.cpu.commit.committedInstType_0::SimdShiftAcc            0      0.00%     87.50% # Class of committed instruction (Count)
system.cpu.commit.committedInstType_0::SimdDiv            0      0.00%     87.50% # Class of committed instruction (Count)
system.cpu.commit.committedInstType_0::SimdSqrt            0      0.00%     87.50% # Class of committed instruction (Count)
system.cpu.commit.committedInstType_0::SimdFloatAdd            0      0.00%     87.50% # Class of committed instruction (Count)
system.cpu.commit.committedInstType_0::SimdFloatAlu            0      0.00%     87.50% # Class of committed instruction (Count)
system.cpu.commit.committedInstType_0::SimdFloatCmp            0      0.00%     87.50% # Class of committed instruction (Count)
system.cpu.commit.committedInstType_0::SimdFloatCvt            0      0.00%     87.50% # Class of committed instruction (Count)
system.cpu.commit.committedInstType_0::SimdFloatDiv            0      0.00%     87.50% # Class of committed instruction (Count)
system.cpu.commit.committedInstType_0::SimdFloatMisc            0      0.00%     87.50% # Class of committed instruction (Count)
system.cpu.commit.committedInstType_0::SimdFloatMult            0      0.00%     87.50% # Class of committed instruction (Count)
system.cpu.commit.committedInstType_0::SimdFloatMultAcc            0      0.00%     87.50% # Class of committed instruction (Count)
system.cpu.commit.committedInstType_0::SimdFloatSqrt            0      0.00%     87.50% # Class of committed instruction (Count)
system.cpu.commit.committedInstType_0::SimdReduceAdd            0      0.00%     87.50% # Class of committed instruction (Count)
system.cpu.commit.committedInstType_0::SimdReduceAlu            0      0.00%     87.50% # Class of committed instruction (Count)
system.cpu.commit.committedInstType_0::SimdReduceCmp            0      0.00%     87.50% # Class of committed instruction (Count)
system.cpu.commit.committedInstType_0::SimdFloatReduceAdd            0      0.00%     87.50% # Class of committed instruction (Count)
system.cpu.commit.committedInstType_0::SimdFloatReduceCmp            0      0.00%     87.50% # Class of committed instruction (Count)
system.cpu.commit.committedInstType_0::SimdAes            0      0.00%     87.50% # Class of committed instruction (Count)
system.cpu.commit.committedInstType_0::SimdAesMix            0      0.00%     87.50% # Class of committed instruction (Count)
system.cpu.commit.committedInstType_0::SimdSha1Hash            0      0.00%     87.50% # Class of committed instruction (Count)
system.cpu.commit.committedInstType_0::SimdSha1Hash2            0      0.00%     87.50% # Class of committed instruction (Count)
system.cpu.commit.committedInstType_0::SimdSha256Hash            0      0.00%     87.50% # Class of committed instruction (Count)
system.cpu.commit.committedInstType_0::SimdSha256Hash2            0      0.00%     87.50% # Class of committed instruction (Count)
system.cpu.commit.committedInstType_0::SimdShaSigma2            0      0.00%     87.50% # Class of committed instruction (Count)
system.cpu.commit.committedInstType_0::SimdShaSigma3            0      0.00%     87.50% # Class of committed instruction (Count)
system.cpu.commit.committedInstType_0::SimdPredAlu            0      0.00%     87.50% # Class of committed instruction (Count)
system.cpu.commit.committedInstType_0::MemRead     13892472      6.49%     93.99% # Class of committed instruction (Count)
system.cpu.commit.committedInstType_0::MemWrite     12861730      6.01%    100.00% # Class of committed instruction (Count)
system.cpu.commit.committedInstType_0::FloatMemRead            0      0.00%    100.00% # Class of committed instruction (Count)
system.cpu.commit.committedInstType_0::FloatMemWrite            0      0.00%    100.00% # Class of committed instruction (Count)
system.cpu.commit.committedInstType_0::IprAccess            0      0.00%    100.00% # Class of committed instruction (Count)
system.cpu.commit.committedInstType_0::InstPrefetch            0      0.00%    100.00% # Class of committed instruction (Count)
system.cpu.commit.committedInstType_0::total    213986144                       # Class of committed instruction (Count)
system.cpu.commit.commitEligibleSamples      13495520                       # number cycles where commit BW limit reached (Cycle)
system.cpu.dcache.demandHits::cpu.data       22257068                       # number of demand (read+write) hits (Count)
system.cpu.dcache.demandHits::total          22257068                       # number of demand (read+write) hits (Count)
system.cpu.dcache.overallHits::cpu.data      22257068                       # number of overall hits (Count)
system.cpu.dcache.overallHits::total         22257068                       # number of overall hits (Count)
system.cpu.dcache.demandMisses::cpu.data       981265                       # number of demand (read+write) misses (Count)
system.cpu.dcache.demandMisses::total          981265                       # number of demand (read+write) misses (Count)
system.cpu.dcache.overallMisses::cpu.data       981265                       # number of overall misses (Count)
system.cpu.dcache.overallMisses::total         981265                       # number of overall misses (Count)
system.cpu.dcache.demandMissLatency::cpu.data  31674792491                       # number of demand (read+write) miss ticks (Tick)
system.cpu.dcache.demandMissLatency::total  31674792491                       # number of demand (read+write) miss ticks (Tick)
system.cpu.dcache.overallMissLatency::cpu.data  31674792491                       # number of overall miss ticks (Tick)
system.cpu.dcache.overallMissLatency::total  31674792491                       # number of overall miss ticks (Tick)
system.cpu.dcache.demandAccesses::cpu.data     23238333                       # number of demand (read+write) accesses (Count)
system.cpu.dcache.demandAccesses::total      23238333                       # number of demand (read+write) accesses (Count)
system.cpu.dcache.overallAccesses::cpu.data     23238333                       # number of overall (read+write) accesses (Count)
system.cpu.dcache.overallAccesses::total     23238333                       # number of overall (read+write) accesses (Count)
system.cpu.dcache.demandMissRate::cpu.data     0.042226                       # miss rate for demand accesses (Ratio)
system.cpu.dcache.demandMissRate::total      0.042226                       # miss rate for demand accesses (Ratio)
system.cpu.dcache.overallMissRate::cpu.data     0.042226                       # miss rate for overall accesses (Ratio)
system.cpu.dcache.overallMissRate::total     0.042226                       # miss rate for overall accesses (Ratio)
system.cpu.dcache.demandAvgMissLatency::cpu.data 32279.549858                       # average overall miss latency in ticks ((Tick/Count))
system.cpu.dcache.demandAvgMissLatency::total 32279.549858                       # average overall miss latency in ticks ((Tick/Count))
system.cpu.dcache.overallAvgMissLatency::cpu.data 32279.549858                       # average overall miss latency ((Tick/Count))
system.cpu.dcache.overallAvgMissLatency::total 32279.549858                       # average overall miss latency ((Tick/Count))
system.cpu.dcache.blockedCycles::no_mshrs        92359                       # number of cycles access was blocked (Cycle)
system.cpu.dcache.blockedCycles::no_targets          445                       # number of cycles access was blocked (Cycle)
system.cpu.dcache.blockedCauses::no_mshrs         2069                       # number of times access was blocked (Count)
system.cpu.dcache.blockedCauses::no_targets            7                       # number of times access was blocked (Count)
system.cpu.dcache.avgBlocked::no_mshrs      44.639439                       # average number of cycles each access was blocked ((Cycle/Count))
system.cpu.dcache.avgBlocked::no_targets    63.571429                       # average number of cycles each access was blocked ((Cycle/Count))
system.cpu.dcache.writebacks::writebacks       716738                       # number of writebacks (Count)
system.cpu.dcache.writebacks::total            716738                       # number of writebacks (Count)
system.cpu.dcache.demandMshrHits::cpu.data        50620                       # number of demand (read+write) MSHR hits (Count)
system.cpu.dcache.demandMshrHits::total         50620                       # number of demand (read+write) MSHR hits (Count)
system.cpu.dcache.overallMshrHits::cpu.data        50620                       # number of overall MSHR hits (Count)
system.cpu.dcache.overallMshrHits::total        50620                       # number of overall MSHR hits (Count)
system.cpu.dcache.demandMshrMisses::cpu.data       930645                       # number of demand (read+write) MSHR misses (Count)
system.cpu.dcache.demandMshrMisses::total       930645                       # number of demand (read+write) MSHR misses (Count)
system.cpu.dcache.overallMshrMisses::cpu.data       930645                       # number of overall MSHR misses (Count)
system.cpu.dcache.overallMshrMisses::total       930645                       # number of overall MSHR misses (Count)
system.cpu.dcache.demandMshrMissLatency::cpu.data  27387827199                       # number of demand (read+write) MSHR miss ticks (Tick)
system.cpu.dcache.demandMshrMissLatency::total  27387827199                       # number of demand (read+write) MSHR miss ticks (Tick)
system.cpu.dcache.overallMshrMissLatency::cpu.data  27387827199                       # number of overall MSHR miss ticks (Tick)
system.cpu.dcache.overallMshrMissLatency::total  27387827199                       # number of overall MSHR miss ticks (Tick)
system.cpu.dcache.demandMshrMissRate::cpu.data     0.040048                       # mshr miss ratio for demand accesses (Ratio)
system.cpu.dcache.demandMshrMissRate::total     0.040048                       # mshr miss ratio for demand accesses (Ratio)
system.cpu.dcache.overallMshrMissRate::cpu.data     0.040048                       # mshr miss ratio for overall accesses (Ratio)
system.cpu.dcache.overallMshrMissRate::total     0.040048                       # mshr miss ratio for overall accesses (Ratio)
system.cpu.dcache.demandAvgMshrMissLatency::cpu.data 29428.866215                       # average overall mshr miss latency ((Tick/Count))
system.cpu.dcache.demandAvgMshrMissLatency::total 29428.866215                       # average overall mshr miss latency ((Tick/Count))
system.cpu.dcache.overallAvgMshrMissLatency::cpu.data 29428.866215                       # average overall mshr miss latency ((Tick/Count))
system.cpu.dcache.overallAvgMshrMissLatency::total 29428.866215                       # average overall mshr miss latency ((Tick/Count))
system.cpu.dcache.replacements                 929627                       # number of replacements (Count)
system.cpu.dcache.ReadReq.hits::cpu.data      9401136                       # number of ReadReq hits (Count)
system.cpu.dcache.ReadReq.hits::total         9401136                       # number of ReadReq hits (Count)
system.cpu.dcache.ReadReq.misses::cpu.data       975559                       # number of ReadReq misses (Count)
system.cpu.dcache.ReadReq.misses::total        975559                       # number of ReadReq misses (Count)
system.cpu.dcache.ReadReq.missLatency::cpu.data  31345465000                       # number of ReadReq miss ticks (Tick)
system.cpu.dcache.ReadReq.missLatency::total  31345465000                       # number of ReadReq miss ticks (Tick)
system.cpu.dcache.ReadReq.accesses::cpu.data     10376695                       # number of ReadReq accesses(hits+misses) (Count)
system.cpu.dcache.ReadReq.accesses::total     10376695                       # number of ReadReq accesses(hits+misses) (Count)
system.cpu.dcache.ReadReq.missRate::cpu.data     0.094014                       # miss rate for ReadReq accesses (Ratio)
system.cpu.dcache.ReadReq.missRate::total     0.094014                       # miss rate for ReadReq accesses (Ratio)
system.cpu.dcache.ReadReq.avgMissLatency::cpu.data 32130.773228                       # average ReadReq miss latency ((Tick/Count))
system.cpu.dcache.ReadReq.avgMissLatency::total 32130.773228                       # average ReadReq miss latency ((Tick/Count))
system.cpu.dcache.ReadReq.mshrHits::cpu.data        47171                       # number of ReadReq MSHR hits (Count)
system.cpu.dcache.ReadReq.mshrHits::total        47171                       # number of ReadReq MSHR hits (Count)
system.cpu.dcache.ReadReq.mshrMisses::cpu.data       928388                       # number of ReadReq MSHR misses (Count)
system.cpu.dcache.ReadReq.mshrMisses::total       928388                       # number of ReadReq MSHR misses (Count)
system.cpu.dcache.ReadReq.mshrMissLatency::cpu.data  27255459000                       # number of ReadReq MSHR miss ticks (Tick)
system.cpu.dcache.ReadReq.mshrMissLatency::total  27255459000                       # number of ReadReq MSHR miss ticks (Tick)
system.cpu.dcache.ReadReq.mshrMissRate::cpu.data     0.089469                       # mshr miss rate for ReadReq accesses (Ratio)
system.cpu.dcache.ReadReq.mshrMissRate::total     0.089469                       # mshr miss rate for ReadReq accesses (Ratio)
system.cpu.dcache.ReadReq.avgMshrMissLatency::cpu.data 29357.832070                       # average ReadReq mshr miss latency ((Tick/Count))
system.cpu.dcache.ReadReq.avgMshrMissLatency::total 29357.832070                       # average ReadReq mshr miss latency ((Tick/Count))
system.cpu.dcache.SwapReq.hits::cpu.data          100                       # number of SwapReq hits (Count)
system.cpu.dcache.SwapReq.hits::total             100                       # number of SwapReq hits (Count)
system.cpu.dcache.SwapReq.misses::cpu.data            6                       # number of SwapReq misses (Count)
system.cpu.dcache.SwapReq.misses::total             6                       # number of SwapReq misses (Count)
system.cpu.dcache.SwapReq.missLatency::cpu.data       357000                       # number of SwapReq miss ticks (Tick)
system.cpu.dcache.SwapReq.missLatency::total       357000                       # number of SwapReq miss ticks (Tick)
system.cpu.dcache.SwapReq.accesses::cpu.data          106                       # number of SwapReq accesses(hits+misses) (Count)
system.cpu.dcache.SwapReq.accesses::total          106                       # number of SwapReq accesses(hits+misses) (Count)
system.cpu.dcache.SwapReq.missRate::cpu.data     0.056604                       # miss rate for SwapReq accesses (Ratio)
system.cpu.dcache.SwapReq.missRate::total     0.056604                       # miss rate for SwapReq accesses (Ratio)
system.cpu.dcache.SwapReq.avgMissLatency::cpu.data        59500                       # average SwapReq miss latency ((Tick/Count))
system.cpu.dcache.SwapReq.avgMissLatency::total        59500                       # average SwapReq miss latency ((Tick/Count))
system.cpu.dcache.SwapReq.mshrMisses::cpu.data            6                       # number of SwapReq MSHR misses (Count)
system.cpu.dcache.SwapReq.mshrMisses::total            6                       # number of SwapReq MSHR misses (Count)
system.cpu.dcache.SwapReq.mshrMissLatency::cpu.data       351000                       # number of SwapReq MSHR miss ticks (Tick)
system.cpu.dcache.SwapReq.mshrMissLatency::total       351000                       # number of SwapReq MSHR miss ticks (Tick)
system.cpu.dcache.SwapReq.mshrMissRate::cpu.data     0.056604                       # mshr miss rate for SwapReq accesses (Ratio)
system.cpu.dcache.SwapReq.mshrMissRate::total     0.056604                       # mshr miss rate for SwapReq accesses (Ratio)
system.cpu.dcache.SwapReq.avgMshrMissLatency::cpu.data        58500                       # average SwapReq mshr miss latency ((Tick/Count))
system.cpu.dcache.SwapReq.avgMshrMissLatency::total        58500                       # average SwapReq mshr miss latency ((Tick/Count))
system.cpu.dcache.WriteLineReq.misses::cpu.data          131                       # number of WriteLineReq misses (Count)
system.cpu.dcache.WriteLineReq.misses::total          131                       # number of WriteLineReq misses (Count)
system.cpu.dcache.WriteLineReq.missLatency::cpu.data      4173908                       # number of WriteLineReq miss ticks (Tick)
system.cpu.dcache.WriteLineReq.missLatency::total      4173908                       # number of WriteLineReq miss ticks (Tick)
system.cpu.dcache.WriteLineReq.accesses::cpu.data          131                       # number of WriteLineReq accesses(hits+misses) (Count)
system.cpu.dcache.WriteLineReq.accesses::total          131                       # number of WriteLineReq accesses(hits+misses) (Count)
system.cpu.dcache.WriteLineReq.missRate::cpu.data            1                       # miss rate for WriteLineReq accesses (Ratio)
system.cpu.dcache.WriteLineReq.missRate::total            1                       # miss rate for WriteLineReq accesses (Ratio)
system.cpu.dcache.WriteLineReq.avgMissLatency::cpu.data 31861.893130                       # average WriteLineReq miss latency ((Tick/Count))
system.cpu.dcache.WriteLineReq.avgMissLatency::total 31861.893130                       # average WriteLineReq miss latency ((Tick/Count))
system.cpu.dcache.WriteLineReq.mshrMisses::cpu.data          131                       # number of WriteLineReq MSHR misses (Count)
system.cpu.dcache.WriteLineReq.mshrMisses::total          131                       # number of WriteLineReq MSHR misses (Count)
system.cpu.dcache.WriteLineReq.mshrMissLatency::cpu.data      4042908                       # number of WriteLineReq MSHR miss ticks (Tick)
system.cpu.dcache.WriteLineReq.mshrMissLatency::total      4042908                       # number of WriteLineReq MSHR miss ticks (Tick)
system.cpu.dcache.WriteLineReq.mshrMissRate::cpu.data            1                       # mshr miss rate for WriteLineReq accesses (Ratio)
system.cpu.dcache.WriteLineReq.mshrMissRate::total            1                       # mshr miss rate for WriteLineReq accesses (Ratio)
system.cpu.dcache.WriteLineReq.avgMshrMissLatency::cpu.data 30861.893130                       # average WriteLineReq mshr miss latency ((Tick/Count))
system.cpu.dcache.WriteLineReq.avgMshrMissLatency::total 30861.893130                       # average WriteLineReq mshr miss latency ((Tick/Count))
system.cpu.dcache.WriteReq.hits::cpu.data     12855932                       # number of WriteReq hits (Count)
system.cpu.dcache.WriteReq.hits::total       12855932                       # number of WriteReq hits (Count)
system.cpu.dcache.WriteReq.misses::cpu.data         5575                       # number of WriteReq misses (Count)
system.cpu.dcache.WriteReq.misses::total         5575                       # number of WriteReq misses (Count)
system.cpu.dcache.WriteReq.missLatency::cpu.data    325153583                       # number of WriteReq miss ticks (Tick)
system.cpu.dcache.WriteReq.missLatency::total    325153583                       # number of WriteReq miss ticks (Tick)
system.cpu.dcache.WriteReq.accesses::cpu.data     12861507                       # number of WriteReq accesses(hits+misses) (Count)
system.cpu.dcache.WriteReq.accesses::total     12861507                       # number of WriteReq accesses(hits+misses) (Count)
system.cpu.dcache.WriteReq.missRate::cpu.data     0.000433                       # miss rate for WriteReq accesses (Ratio)
system.cpu.dcache.WriteReq.missRate::total     0.000433                       # miss rate for WriteReq accesses (Ratio)
system.cpu.dcache.WriteReq.avgMissLatency::cpu.data 58323.512646                       # average WriteReq miss latency ((Tick/Count))
system.cpu.dcache.WriteReq.avgMissLatency::total 58323.512646                       # average WriteReq miss latency ((Tick/Count))
system.cpu.dcache.WriteReq.mshrHits::cpu.data         3449                       # number of WriteReq MSHR hits (Count)
system.cpu.dcache.WriteReq.mshrHits::total         3449                       # number of WriteReq MSHR hits (Count)
system.cpu.dcache.WriteReq.mshrMisses::cpu.data         2126                       # number of WriteReq MSHR misses (Count)
system.cpu.dcache.WriteReq.mshrMisses::total         2126                       # number of WriteReq MSHR misses (Count)
system.cpu.dcache.WriteReq.mshrMissLatency::cpu.data    128325291                       # number of WriteReq MSHR miss ticks (Tick)
system.cpu.dcache.WriteReq.mshrMissLatency::total    128325291                       # number of WriteReq MSHR miss ticks (Tick)
system.cpu.dcache.WriteReq.mshrMissRate::cpu.data     0.000165                       # mshr miss rate for WriteReq accesses (Ratio)
system.cpu.dcache.WriteReq.mshrMissRate::total     0.000165                       # mshr miss rate for WriteReq accesses (Ratio)
system.cpu.dcache.WriteReq.avgMshrMissLatency::cpu.data 60359.967545                       # average WriteReq mshr miss latency ((Tick/Count))
system.cpu.dcache.WriteReq.avgMshrMissLatency::total 60359.967545                       # average WriteReq mshr miss latency ((Tick/Count))
system.cpu.dcache.power_state.pwrStateResidencyTicks::UNDEFINED  87849192000                       # Cumulative time (in ticks) in various power states (Tick)
system.cpu.dcache.tags.tagsInUse          1023.575653                       # Average ticks per tags in use ((Tick/Count))
system.cpu.dcache.tags.totalRefs             23187819                       # Total number of references to valid blocks. (Count)
system.cpu.dcache.tags.sampledRefs             930651                       # Sample count of references to valid blocks. (Count)
system.cpu.dcache.tags.avgRefs              24.915698                       # Average number of references to valid blocks. ((Count/Count))
system.cpu.dcache.tags.warmupTick              253500                       # The tick when the warmup percentage was hit. (Tick)
system.cpu.dcache.tags.occupancies::cpu.data  1023.575653                       # Average occupied blocks per tick, per requestor ((Count/Tick))
system.cpu.dcache.tags.avgOccs::cpu.data     0.999586                       # Average percentage of cache occupancy ((Ratio/Tick))
system.cpu.dcache.tags.avgOccs::total        0.999586                       # Average percentage of cache occupancy ((Ratio/Tick))
system.cpu.dcache.tags.occupanciesTaskId::1024         1024                       # Occupied blocks per task id (Count)
system.cpu.dcache.tags.ageTaskId_1024::0           88                       # Occupied blocks per task id, per block age (Count)
system.cpu.dcache.tags.ageTaskId_1024::1          463                       # Occupied blocks per task id, per block age (Count)
system.cpu.dcache.tags.ageTaskId_1024::2          472                       # Occupied blocks per task id, per block age (Count)
system.cpu.dcache.tags.ageTaskId_1024::4            1                       # Occupied blocks per task id, per block age (Count)
system.cpu.dcache.tags.ratioOccsTaskId::1024            1                       # Ratio of occupied blocks and all blocks, per task id (Ratio)
system.cpu.dcache.tags.tagAccesses           93884407                       # Number of tag accesses (Count)
system.cpu.dcache.tags.dataAccesses          93884407                       # Number of data accesses (Count)
system.cpu.dcache.tags.power_state.pwrStateResidencyTicks::UNDEFINED  87849192000                       # Cumulative time (in ticks) in various power states (Tick)
system.cpu.decode.idleCycles                  8555659                       # Number of cycles decode is idle (Cycle)
system.cpu.decode.blockedCycles             139668334                       # Number of cycles decode is blocked (Cycle)
system.cpu.decode.runCycles                   3609117                       # Number of cycles decode is running (Cycle)
system.cpu.decode.unblockCycles              23693284                       # Number of cycles decode is unblocking (Cycle)
system.cpu.decode.squashCycles                  34346                       # Number of cycles decode is squashing (Cycle)
system.cpu.decode.branchResolved             13221897                       # Number of times decode resolved a branch (Count)
system.cpu.decode.branchMispred                   835                       # Number of times decode detected a branch misprediction (Count)
system.cpu.decode.decodedInsts              215949223                       # Number of instructions handled by decode (Count)
system.cpu.decode.squashedInsts                  2833                       # Number of squashed instructions handled by decode (Count)
system.cpu.fetch.icacheStallCycles           29379074                       # Number of cycles fetch is stalled on an Icache miss (Cycle)
system.cpu.fetch.insts                      216313346                       # Number of instructions fetch has processed (Count)
system.cpu.fetch.branches                    37603793                       # Number of branches that fetch encountered (Count)
system.cpu.fetch.predictedBranches           13312108                       # Number of branches that fetch has predicted taken (Count)
system.cpu.fetch.cycles                     146140940                       # Number of cycles fetch has run and was not squashing or blocked (Cycle)
system.cpu.fetch.squashCycles                   70316                       # Number of cycles fetch has spent squashing (Cycle)
system.cpu.fetch.miscStallCycles                  730                       # Number of cycles fetch has spent waiting on interrupts, or bad addresses, or out of MSHRs (Cycle)
system.cpu.fetch.pendingTrapStallCycles          4774                       # Number of stall cycles due to pending traps (Cycle)
system.cpu.fetch.icacheWaitRetryStallCycles           64                       # Number of stall cycles due to full MSHR (Cycle)
system.cpu.fetch.cacheLines                  29327589                       # Number of cache lines fetched (Count)
system.cpu.fetch.icacheSquashes                 14624                       # Number of outstanding Icache misses that were squashed (Count)
system.cpu.fetch.nisnDist::samples          175560740                       # Number of instructions fetched each cycle (Total) (Count)
system.cpu.fetch.nisnDist::mean              1.234284                       # Number of instructions fetched each cycle (Total) (Count)
system.cpu.fetch.nisnDist::stdev             2.439510                       # Number of instructions fetched each cycle (Total) (Count)
system.cpu.fetch.nisnDist::underflows               0      0.00%      0.00% # Number of instructions fetched each cycle (Total) (Count)
system.cpu.fetch.nisnDist::0                126138891     71.85%     71.85% # Number of instructions fetched each cycle (Total) (Count)
system.cpu.fetch.nisnDist::1                 12461646      7.10%     78.95% # Number of instructions fetched each cycle (Total) (Count)
system.cpu.fetch.nisnDist::2                  3162887      1.80%     80.75% # Number of instructions fetched each cycle (Total) (Count)
system.cpu.fetch.nisnDist::3                  2706728      1.54%     82.29% # Number of instructions fetched each cycle (Total) (Count)
system.cpu.fetch.nisnDist::4                 11839818      6.74%     89.03% # Number of instructions fetched each cycle (Total) (Count)
system.cpu.fetch.nisnDist::5                  1656831      0.94%     89.98% # Number of instructions fetched each cycle (Total) (Count)
system.cpu.fetch.nisnDist::6                  2537343      1.45%     91.42% # Number of instructions fetched each cycle (Total) (Count)
system.cpu.fetch.nisnDist::7                  1535990      0.87%     92.30% # Number of instructions fetched each cycle (Total) (Count)
system.cpu.fetch.nisnDist::8                 13520606      7.70%    100.00% # Number of instructions fetched each cycle (Total) (Count)
system.cpu.fetch.nisnDist::overflows                0      0.00%    100.00% # Number of instructions fetched each cycle (Total) (Count)
system.cpu.fetch.nisnDist::min_value                0                       # Number of instructions fetched each cycle (Total) (Count)
system.cpu.fetch.nisnDist::max_value                8                       # Number of instructions fetched each cycle (Total) (Count)
system.cpu.fetch.nisnDist::total            175560740                       # Number of instructions fetched each cycle (Total) (Count)
system.cpu.fetch.branchRate                  0.214025                       # Number of branch fetches per cycle (Ratio)
system.cpu.fetch.rate                        1.231163                       # Number of inst fetches per cycle ((Count/Cycle))
system.cpu.icache.demandHits::cpu.inst       29324984                       # number of demand (read+write) hits (Count)
system.cpu.icache.demandHits::total          29324984                       # number of demand (read+write) hits (Count)
system.cpu.icache.overallHits::cpu.inst      29324984                       # number of overall hits (Count)
system.cpu.icache.overallHits::total         29324984                       # number of overall hits (Count)
system.cpu.icache.demandMisses::cpu.inst         2605                       # number of demand (read+write) misses (Count)
system.cpu.icache.demandMisses::total            2605                       # number of demand (read+write) misses (Count)
system.cpu.icache.overallMisses::cpu.inst         2605                       # number of overall misses (Count)
system.cpu.icache.overallMisses::total           2605                       # number of overall misses (Count)
system.cpu.icache.demandMissLatency::cpu.inst    173690498                       # number of demand (read+write) miss ticks (Tick)
system.cpu.icache.demandMissLatency::total    173690498                       # number of demand (read+write) miss ticks (Tick)
system.cpu.icache.overallMissLatency::cpu.inst    173690498                       # number of overall miss ticks (Tick)
system.cpu.icache.overallMissLatency::total    173690498                       # number of overall miss ticks (Tick)
system.cpu.icache.demandAccesses::cpu.inst     29327589                       # number of demand (read+write) accesses (Count)
system.cpu.icache.demandAccesses::total      29327589                       # number of demand (read+write) accesses (Count)
system.cpu.icache.overallAccesses::cpu.inst     29327589                       # number of overall (read+write) accesses (Count)
system.cpu.icache.overallAccesses::total     29327589                       # number of overall (read+write) accesses (Count)
system.cpu.icache.demandMissRate::cpu.inst     0.000089                       # miss rate for demand accesses (Ratio)
system.cpu.icache.demandMissRate::total      0.000089                       # miss rate for demand accesses (Ratio)
system.cpu.icache.overallMissRate::cpu.inst     0.000089                       # miss rate for overall accesses (Ratio)
system.cpu.icache.overallMissRate::total     0.000089                       # miss rate for overall accesses (Ratio)
system.cpu.icache.demandAvgMissLatency::cpu.inst 66675.814971                       # average overall miss latency in ticks ((Tick/Count))
system.cpu.icache.demandAvgMissLatency::total 66675.814971                       # average overall miss latency in ticks ((Tick/Count))
system.cpu.icache.overallAvgMissLatency::cpu.inst 66675.814971                       # average overall miss latency ((Tick/Count))
system.cpu.icache.overallAvgMissLatency::total 66675.814971                       # average overall miss latency ((Tick/Count))
system.cpu.icache.blockedCycles::no_mshrs          752                       # number of cycles access was blocked (Cycle)
system.cpu.icache.blockedCycles::no_targets            0                       # number of cycles access was blocked (Cycle)
system.cpu.icache.blockedCauses::no_mshrs           15                       # number of times access was blocked (Count)
system.cpu.icache.blockedCauses::no_targets            0                       # number of times access was blocked (Count)
system.cpu.icache.avgBlocked::no_mshrs      50.133333                       # average number of cycles each access was blocked ((Cycle/Count))
system.cpu.icache.avgBlocked::no_targets          nan                       # average number of cycles each access was blocked ((Cycle/Count))
system.cpu.icache.writebacks::writebacks         1769                       # number of writebacks (Count)
system.cpu.icache.writebacks::total              1769                       # number of writebacks (Count)
system.cpu.icache.demandMshrHits::cpu.inst          579                       # number of demand (read+write) MSHR hits (Count)
system.cpu.icache.demandMshrHits::total           579                       # number of demand (read+write) MSHR hits (Count)
system.cpu.icache.overallMshrHits::cpu.inst          579                       # number of overall MSHR hits (Count)
system.cpu.icache.overallMshrHits::total          579                       # number of overall MSHR hits (Count)
system.cpu.icache.demandMshrMisses::cpu.inst         2026                       # number of demand (read+write) MSHR misses (Count)
system.cpu.icache.demandMshrMisses::total         2026                       # number of demand (read+write) MSHR misses (Count)
system.cpu.icache.overallMshrMisses::cpu.inst         2026                       # number of overall MSHR misses (Count)
system.cpu.icache.overallMshrMisses::total         2026                       # number of overall MSHR misses (Count)
system.cpu.icache.demandMshrMissLatency::cpu.inst    136659499                       # number of demand (read+write) MSHR miss ticks (Tick)
system.cpu.icache.demandMshrMissLatency::total    136659499                       # number of demand (read+write) MSHR miss ticks (Tick)
system.cpu.icache.overallMshrMissLatency::cpu.inst    136659499                       # number of overall MSHR miss ticks (Tick)
system.cpu.icache.overallMshrMissLatency::total    136659499                       # number of overall MSHR miss ticks (Tick)
system.cpu.icache.demandMshrMissRate::cpu.inst     0.000069                       # mshr miss ratio for demand accesses (Ratio)
system.cpu.icache.demandMshrMissRate::total     0.000069                       # mshr miss ratio for demand accesses (Ratio)
system.cpu.icache.overallMshrMissRate::cpu.inst     0.000069                       # mshr miss ratio for overall accesses (Ratio)
system.cpu.icache.overallMshrMissRate::total     0.000069                       # mshr miss ratio for overall accesses (Ratio)
system.cpu.icache.demandAvgMshrMissLatency::cpu.inst 67452.862290                       # average overall mshr miss latency ((Tick/Count))
system.cpu.icache.demandAvgMshrMissLatency::total 67452.862290                       # average overall mshr miss latency ((Tick/Count))
system.cpu.icache.overallAvgMshrMissLatency::cpu.inst 67452.862290                       # average overall mshr miss latency ((Tick/Count))
system.cpu.icache.overallAvgMshrMissLatency::total 67452.862290                       # average overall mshr miss latency ((Tick/Count))
system.cpu.icache.replacements                   1769                       # number of replacements (Count)
system.cpu.icache.ReadReq.hits::cpu.inst     29324984                       # number of ReadReq hits (Count)
system.cpu.icache.ReadReq.hits::total        29324984                       # number of ReadReq hits (Count)
system.cpu.icache.ReadReq.misses::cpu.inst         2605                       # number of ReadReq misses (Count)
system.cpu.icache.ReadReq.misses::total          2605                       # number of ReadReq misses (Count)
system.cpu.icache.ReadReq.missLatency::cpu.inst    173690498                       # number of ReadReq miss ticks (Tick)
system.cpu.icache.ReadReq.missLatency::total    173690498                       # number of ReadReq miss ticks (Tick)
system.cpu.icache.ReadReq.accesses::cpu.inst     29327589                       # number of ReadReq accesses(hits+misses) (Count)
system.cpu.icache.ReadReq.accesses::total     29327589                       # number of ReadReq accesses(hits+misses) (Count)
system.cpu.icache.ReadReq.missRate::cpu.inst     0.000089                       # miss rate for ReadReq accesses (Ratio)
system.cpu.icache.ReadReq.missRate::total     0.000089                       # miss rate for ReadReq accesses (Ratio)
system.cpu.icache.ReadReq.avgMissLatency::cpu.inst 66675.814971                       # average ReadReq miss latency ((Tick/Count))
system.cpu.icache.ReadReq.avgMissLatency::total 66675.814971                       # average ReadReq miss latency ((Tick/Count))
system.cpu.icache.ReadReq.mshrHits::cpu.inst          579                       # number of ReadReq MSHR hits (Count)
system.cpu.icache.ReadReq.mshrHits::total          579                       # number of ReadReq MSHR hits (Count)
system.cpu.icache.ReadReq.mshrMisses::cpu.inst         2026                       # number of ReadReq MSHR misses (Count)
system.cpu.icache.ReadReq.mshrMisses::total         2026                       # number of ReadReq MSHR misses (Count)
system.cpu.icache.ReadReq.mshrMissLatency::cpu.inst    136659499                       # number of ReadReq MSHR miss ticks (Tick)
system.cpu.icache.ReadReq.mshrMissLatency::total    136659499                       # number of ReadReq MSHR miss ticks (Tick)
system.cpu.icache.ReadReq.mshrMissRate::cpu.inst     0.000069                       # mshr miss rate for ReadReq accesses (Ratio)
system.cpu.icache.ReadReq.mshrMissRate::total     0.000069                       # mshr miss rate for ReadReq accesses (Ratio)
system.cpu.icache.ReadReq.avgMshrMissLatency::cpu.inst 67452.862290                       # average ReadReq mshr miss latency ((Tick/Count))
system.cpu.icache.ReadReq.avgMshrMissLatency::total 67452.862290                       # average ReadReq mshr miss latency ((Tick/Count))
system.cpu.icache.power_state.pwrStateResidencyTicks::UNDEFINED  87849192000                       # Cumulative time (in ticks) in various power states (Tick)
system.cpu.icache.tags.tagsInUse           255.956061                       # Average ticks per tags in use ((Tick/Count))
system.cpu.icache.tags.totalRefs             29327009                       # Total number of references to valid blocks. (Count)
system.cpu.icache.tags.sampledRefs               2025                       # Sample count of references to valid blocks. (Count)
system.cpu.icache.tags.avgRefs           14482.473580                       # Average number of references to valid blocks. ((Count/Count))
system.cpu.icache.tags.warmupTick               87500                       # The tick when the warmup percentage was hit. (Tick)
system.cpu.icache.tags.occupancies::cpu.inst   255.956061                       # Average occupied blocks per tick, per requestor ((Count/Tick))
system.cpu.icache.tags.avgOccs::cpu.inst     0.999828                       # Average percentage of cache occupancy ((Ratio/Tick))
system.cpu.icache.tags.avgOccs::total        0.999828                       # Average percentage of cache occupancy ((Ratio/Tick))
system.cpu.icache.tags.occupanciesTaskId::1024          256                       # Occupied blocks per task id (Count)
system.cpu.icache.tags.ageTaskId_1024::0           73                       # Occupied blocks per task id, per block age (Count)
system.cpu.icache.tags.ageTaskId_1024::1          100                       # Occupied blocks per task id, per block age (Count)
system.cpu.icache.tags.ageTaskId_1024::4           83                       # Occupied blocks per task id, per block age (Count)
system.cpu.icache.tags.ratioOccsTaskId::1024            1                       # Ratio of occupied blocks and all blocks, per task id (Ratio)
system.cpu.icache.tags.tagAccesses          117312381                       # Number of tag accesses (Count)
system.cpu.icache.tags.dataAccesses         117312381                       # Number of data accesses (Count)
system.cpu.icache.tags.power_state.pwrStateResidencyTicks::UNDEFINED  87849192000                       # Cumulative time (in ticks) in various power states (Tick)
system.cpu.iew.idleCycles                           0                       # Number of cycles IEW is idle (Cycle)
system.cpu.iew.squashCycles                     34346                       # Number of cycles IEW is squashing (Cycle)
system.cpu.iew.blockCycles                   28990731                       # Number of cycles IEW is blocking (Cycle)
system.cpu.iew.unblockCycles                  4165263                       # Number of cycles IEW is unblocking (Cycle)
system.cpu.iew.dispatchedInsts              215564848                       # Number of instructions dispatched to IQ (Count)
system.cpu.iew.dispSquashedInsts                 3056                       # Number of squashed instructions skipped by dispatch (Count)
system.cpu.iew.dispLoadInsts                 14057364                       # Number of dispatched load instructions (Count)
system.cpu.iew.dispStoreInsts                12946507                       # Number of dispatched store instructions (Count)
system.cpu.iew.dispNonSpecInsts                   394                       # Number of dispatched non-speculative instructions (Count)
system.cpu.iew.iqFullEvents                   2162251                       # Number of times the IQ has become full, causing a stall (Count)
system.cpu.iew.lsqFullEvents                    25752                       # Number of times the LSQ has become full, causing a stall (Count)
system.cpu.iew.memOrderViolationEvents           3793                       # Number of memory order violations (Count)
system.cpu.iew.predictedTakenIncorrect          22197                       # Number of branches that were predicted taken incorrectly (Count)
system.cpu.iew.predictedNotTakenIncorrect        10062                       # Number of branches that were predicted not taken incorrectly (Count)
system.cpu.iew.branchMispredicts                32259                       # Number of branch mispredicts detected at execute (Count)
system.cpu.iew.instsToCommit                214006851                       # Cumulative count of insts sent to commit (Count)
system.cpu.iew.writebackCount               213996398                       # Cumulative count of insts written-back (Count)
system.cpu.iew.producerInst                 145548497                       # Number of instructions producing a value (Count)
system.cpu.iew.consumerInst                 304113888                       # Number of instructions consuming a value (Count)
system.cpu.iew.wbRate                        1.217976                       # Insts written-back per cycle ((Count/Cycle))
system.cpu.iew.wbFanout                      0.478599                       # Average fanout of values written-back ((Count/Count))
system.cpu.lsq0.forwLoads                     3606507                       # Number of loads that had data forwarded from stores (Count)
system.cpu.lsq0.squashedLoads                  164892                       # Number of loads squashed (Count)
system.cpu.lsq0.ignoredResponses                   40                       # Number of memory responses ignored because the instruction is squashed (Count)
system.cpu.lsq0.memOrderViolation                3793                       # Number of memory ordering violations (Count)
system.cpu.lsq0.squashedStores                  84777                       # Number of stores squashed (Count)
system.cpu.lsq0.rescheduledLoads                 9257                       # Number of loads that were rescheduled (Count)
system.cpu.lsq0.blockedByCache                   1975                       # Number of times an access to memory failed due to the cache being blocked (Count)
system.cpu.lsq0.loadToUse::samples           13892472                       # Distribution of cycle latency between the first time a load is issued and its completion (Unspecified)
system.cpu.lsq0.loadToUse::mean              7.084958                       # Distribution of cycle latency between the first time a load is issued and its completion (Unspecified)
system.cpu.lsq0.loadToUse::stdev            24.743501                       # Distribution of cycle latency between the first time a load is issued and its completion (Unspecified)
system.cpu.lsq0.loadToUse::0-9               12925116     93.04%     93.04% # Distribution of cycle latency between the first time a load is issued and its completion (Unspecified)
system.cpu.lsq0.loadToUse::10-19                 2847      0.02%     93.06% # Distribution of cycle latency between the first time a load is issued and its completion (Unspecified)
system.cpu.lsq0.loadToUse::20-29               689980      4.97%     98.02% # Distribution of cycle latency between the first time a load is issued and its completion (Unspecified)
system.cpu.lsq0.loadToUse::30-39                 1170      0.01%     98.03% # Distribution of cycle latency between the first time a load is issued and its completion (Unspecified)
system.cpu.lsq0.loadToUse::40-49                  837      0.01%     98.04% # Distribution of cycle latency between the first time a load is issued and its completion (Unspecified)
[...]
system.mem_ctrls.dram.perBankWrBursts::10        13029                       # Per bank write bursts (Count)
system.mem_ctrls.dram.perBankWrBursts::11        12336                       # Per bank write bursts (Count)
system.mem_ctrls.dram.perBankWrBursts::12        11953                       # Per bank write bursts (Count)
system.mem_ctrls.dram.perBankWrBursts::13        12422                       # Per bank write bursts (Count)
system.mem_ctrls.dram.perBankWrBursts::14        12390                       # Per bank write bursts (Count)
system.mem_ctrls.dram.perBankWrBursts::15        12912                       # Per bank write bursts (Count)
system.mem_ctrls.dram.totQLat              1864967250                       # Total ticks spent queuing (Tick)
system.mem_ctrls.dram.totBusLat            1222080000                       # Total ticks spent in databus transfers (Tick)
system.mem_ctrls.dram.totMemAccLat         6447767250                       # Total ticks spent from burst creation until serviced by the DRAM (Tick)
system.mem_ctrls.dram.avgQLat                 7630.30                       # Average queueing delay per DRAM burst ((Tick/Count))
system.mem_ctrls.dram.avgBusLat               5000.00                       # Average bus latency per DRAM burst ((Tick/Count))
system.mem_ctrls.dram.avgMemAccLat           26380.30                       # Average memory access latency per DRAM burst ((Tick/Count))
system.mem_ctrls.dram.readRowHits              205393                       # Number of row buffer hits during reads (Count)
system.mem_ctrls.dram.writeRowHits             167531                       # Number of row buffer hits during writes (Count)
system.mem_ctrls.dram.readRowHitRate            84.03                       # Row buffer hit rate for reads (Ratio)
system.mem_ctrls.dram.writeRowHitRate           82.98                       # Row buffer hit rate for writes (Ratio)
system.mem_ctrls.dram.bytesPerActivate::samples        73367                       # Bytes accessed per row activation (Byte)
system.mem_ctrls.dram.bytesPerActivate::mean   389.300258                       # Bytes accessed per row activation (Byte)
system.mem_ctrls.dram.bytesPerActivate::gmean   268.048834                       # Bytes accessed per row activation (Byte)
system.mem_ctrls.dram.bytesPerActivate::stdev   314.008411                       # Bytes accessed per row activation (Byte)
system.mem_ctrls.dram.bytesPerActivate::0-127        10964     14.94%     14.94% # Bytes accessed per row activation (Byte)
system.mem_ctrls.dram.bytesPerActivate::128-255        20771     28.31%     43.26% # Bytes accessed per row activation (Byte)
system.mem_ctrls.dram.bytesPerActivate::256-383         9375     12.78%     56.03% # Bytes accessed per row activation (Byte)
system.mem_ctrls.dram.bytesPerActivate::384-511         7560     10.30%     66.34% # Bytes accessed per row activation (Byte)
system.mem_ctrls.dram.bytesPerActivate::512-639         7156      9.75%     76.09% # Bytes accessed per row activation (Byte)
system.mem_ctrls.dram.bytesPerActivate::640-767         4415      6.02%     82.11% # Bytes accessed per row activation (Byte)
system.mem_ctrls.dram.bytesPerActivate::768-895         3151      4.29%     86.40% # Bytes accessed per row activation (Byte)
system.mem_ctrls.dram.bytesPerActivate::896-1023         2885      3.93%     90.34% # Bytes accessed per row activation (Byte)
system.mem_ctrls.dram.bytesPerActivate::1024-1151         7090      9.66%    100.00% # Bytes accessed per row activation (Byte)
system.mem_ctrls.dram.bytesPerActivate::total        73367                       # Bytes accessed per row activation (Byte)
system.mem_ctrls.dram.bytesRead              15642624                       # Total bytes read (Byte)
system.mem_ctrls.dram.bytesWritten           12920832                       # Total bytes written (Byte)
system.mem_ctrls.dram.avgRdBW              178.062241                       # Average DRAM read bandwidth in MiBytes/s ((Byte/Second))
system.mem_ctrls.dram.avgWrBW              147.079691                       # Average DRAM write bandwidth in MiBytes/s ((Byte/Second))
system.mem_ctrls.dram.peakBW                 12800.00                       # Theoretical peak bandwidth in MiByte/s ((Byte/Second))
system.mem_ctrls.dram.busUtil                    2.54                       # Data bus utilization in percentage (Ratio)
system.mem_ctrls.dram.busUtilRead                1.39                       # Data bus utilization in percentage for reads (Ratio)
system.mem_ctrls.dram.busUtilWrite               1.15                       # Data bus utilization in percentage for writes (Ratio)
system.mem_ctrls.dram.pageHitRate               83.56                       # Row buffer hit rate, read and write combined (Ratio)
system.mem_ctrls.dram.power_state.pwrStateResidencyTicks::UNDEFINED  87849192000                       # Cumulative time (in ticks) in various power states (Tick)
system.mem_ctrls.dram.rank0.actEnergy       268506840                       # Energy for activate commands per rank (pJ) (Joule)
system.mem_ctrls.dram.rank0.preEnergy       142692000                       # Energy for precharge commands per rank (pJ) (Joule)
system.mem_ctrls.dram.rank0.readEnergy      878327100                       # Energy for read commands per rank (pJ) (Joule)
system.mem_ctrls.dram.rank0.writeEnergy     521885160                       # Energy for write commands per rank (pJ) (Joule)
system.mem_ctrls.dram.rank0.refreshEnergy 6934368480.000001                       # Energy for refresh commands per rank (pJ) (Joule)
system.mem_ctrls.dram.rank0.actBackEnergy  26587040670                       # Energy for active background per rank (pJ) (Joule)
system.mem_ctrls.dram.rank0.preBackEnergy  11345003040                       # Energy for precharge background per rank (pJ) (Joule)
system.mem_ctrls.dram.rank0.actPowerDownEnergy            0                       # Energy for active power-down per rank (pJ) (Joule)
system.mem_ctrls.dram.rank0.prePowerDownEnergy            0                       # Energy for precharge power-down per rank (pJ) (Joule)
system.mem_ctrls.dram.rank0.selfRefreshEnergy            0                       # Energy for self refresh per rank (pJ) (Joule)
system.mem_ctrls.dram.rank0.totalEnergy   46677823290                       # Total energy per rank (pJ) (Joule)
system.mem_ctrls.dram.rank0.averagePower   531.340383                       # Core power per rank (mW) (Watt)
system.mem_ctrls.dram.rank0.totalIdleTime            0                       # Total Idle time Per DRAM Rank (Tick)
system.mem_ctrls.dram.rank0.pwrStateTime::IDLE  29254647250                       # Time in different power states (Tick)
system.mem_ctrls.dram.rank0.pwrStateTime::REF   2933320000                       # Time in different power states (Tick)
system.mem_ctrls.dram.rank0.pwrStateTime::SREF            0                       # Time in different power states (Tick)
system.mem_ctrls.dram.rank0.pwrStateTime::PRE_PDN            0                       # Time in different power states (Tick)
system.mem_ctrls.dram.rank0.pwrStateTime::ACT  55661224750                       # Time in different power states (Tick)
system.mem_ctrls.dram.rank0.pwrStateTime::ACT_PDN            0                       # Time in different power states (Tick)
system.mem_ctrls.dram.rank1.actEnergy       255426360                       # Energy for activate commands per rank (pJ) (Joule)
system.mem_ctrls.dram.rank1.preEnergy       135735765                       # Energy for precharge commands per rank (pJ) (Joule)
system.mem_ctrls.dram.rank1.readEnergy      866803140                       # Energy for read commands per rank (pJ) (Joule)
system.mem_ctrls.dram.rank1.writeEnergy     531970200                       # Energy for write commands per rank (pJ) (Joule)
system.mem_ctrls.dram.rank1.refreshEnergy 6934368480.000001                       # Energy for refresh commands per rank (pJ) (Joule)
system.mem_ctrls.dram.rank1.actBackEnergy  25174142910                       # Energy for active background per rank (pJ) (Joule)
system.mem_ctrls.dram.rank1.preBackEnergy  12534811680                       # Energy for precharge background per rank (pJ) (Joule)
system.mem_ctrls.dram.rank1.actPowerDownEnergy            0                       # Energy for active power-down per rank (pJ) (Joule)
system.mem_ctrls.dram.rank1.prePowerDownEnergy            0                       # Energy for precharge power-down per rank (pJ) (Joule)
system.mem_ctrls.dram.rank1.selfRefreshEnergy            0                       # Energy for self refresh per rank (pJ) (Joule)
system.mem_ctrls.dram.rank1.totalEnergy   46433258535                       # Total energy per rank (pJ) (Joule)
system.mem_ctrls.dram.rank1.averagePower   528.556467                       # Core power per rank (mW) (Watt)
system.mem_ctrls.dram.rank1.totalIdleTime            0                       # Total Idle time Per DRAM Rank (Tick)
system.mem_ctrls.dram.rank1.pwrStateTime::IDLE  32359187000                       # Time in different power states (Tick)
system.mem_ctrls.dram.rank1.pwrStateTime::REF   2933320000                       # Time in different power states (Tick)
system.mem_ctrls.dram.rank1.pwrStateTime::SREF            0                       # Time in different power states (Tick)
system.mem_ctrls.dram.rank1.pwrStateTime::PRE_PDN            0                       # Time in different power states (Tick)
system.mem_ctrls.dram.rank1.pwrStateTime::ACT  52556685000                       # Time in different power states (Tick)
system.mem_ctrls.dram.rank1.pwrStateTime::ACT_PDN            0                       # Time in different power states (Tick)
system.mem_ctrls.power_state.pwrStateResidencyTicks::UNDEFINED  87849192000                       # Cumulative time (in ticks) in various power states (Tick)
system.membus.transDist::ReadResp              242953                       # Transaction distribution (Count)
system.membus.transDist::WritebackDirty        201909                       # Transaction distribution (Count)
system.membus.transDist::CleanEvict             38485                       # Transaction distribution (Count)
system.membus.transDist::ReadExReq               1481                       # Transaction distribution (Count)
system.membus.transDist::ReadExResp              1481                       # Transaction distribution (Count)
system.membus.transDist::ReadSharedReq         242953                       # Transaction distribution (Count)
system.membus.transDist::InvalidateReq            143                       # Transaction distribution (Count)
system.membus.pktCount_system.l2.mem_side_port::system.mem_ctrls.port       729405                       # Packet count per connected requestor and responder (Count)
system.membus.pktCount::total                  729405                       # Packet count per connected requestor and responder (Count)
system.membus.pktSize_system.l2.mem_side_port::system.mem_ctrls.port     28565952                       # Cumulative packet size per connected requestor and responder (Byte)
system.membus.pktSize::total                 28565952                       # Cumulative packet size per connected requestor and responder (Byte)
system.membus.snoops                                0                       # Total snoops (Count)
system.membus.snoopTraffic                          0                       # Total snoop traffic (Byte)
system.membus.snoopFanout::samples             244577                       # Request fanout histogram (Count)
system.membus.snoopFanout::mean                     0                       # Request fanout histogram (Count)
system.membus.snoopFanout::stdev                    0                       # Request fanout histogram (Count)
system.membus.snoopFanout::underflows               0      0.00%      0.00% # Request fanout histogram (Count)
system.membus.snoopFanout::0                   244577    100.00%    100.00% # Request fanout histogram (Count)
system.membus.snoopFanout::1                        0      0.00%    100.00% # Request fanout histogram (Count)
system.membus.snoopFanout::overflows                0      0.00%    100.00% # Request fanout histogram (Count)
system.membus.snoopFanout::min_value                0                       # Request fanout histogram (Count)
system.membus.snoopFanout::max_value                0                       # Request fanout histogram (Count)
system.membus.snoopFanout::total               244577                       # Request fanout histogram (Count)
system.membus.power_state.pwrStateResidencyTicks::UNDEFINED  87849192000                       # Cumulative time (in ticks) in various power states (Tick)
system.membus.reqLayer0.occupancy          1324107000                       # Layer occupancy (ticks) (Tick)
system.membus.reqLayer0.utilization               0.0                       # Layer utilization (Ratio)
system.membus.respLayer1.occupancy         1293494500                       # Layer occupancy (ticks) (Tick)
system.membus.respLayer1.utilization              0.0                       # Layer utilization (Ratio)
system.membus.snoop_filter.totRequests         484971                       # Total number of requests made to the snoop filter. (Count)
system.membus.snoop_filter.hitSingleRequests       240394                       # Number of requests hitting in the snoop filter with a single holder of the requested data. (Count)
system.membus.snoop_filter.hitMultiRequests            0                       # Number of requests hitting in the snoop filter with multiple (>1) holders of the requested data. (Count)
system.membus.snoop_filter.totSnoops                0                       # Total number of snoops made to the snoop filter. (Count)
system.membus.snoop_filter.hitSingleSnoops            0                       # Number of snoops hitting in the snoop filter with a single holder of the requested data. (Count)
system.membus.snoop_filter.hitMultiSnoops            0                       # Number of snoops hitting in the snoop filter with multiple (>1) holders of the requested data. (Count)
system.tol2bus.transDist::ReadResp             930413                       # Transaction distribution (Count)
system.tol2bus.transDist::WritebackDirty       918647                       # Transaction distribution (Count)
system.tol2bus.transDist::WritebackClean         1769                       # Transaction distribution (Count)
system.tol2bus.transDist::CleanEvict           251997                       # Transaction distribution (Count)
system.tol2bus.transDist::ReadExReq              2119                       # Transaction distribution (Count)
system.tol2bus.transDist::ReadExResp             2119                       # Transaction distribution (Count)
system.tol2bus.transDist::ReadCleanReq           2026                       # Transaction distribution (Count)
system.tol2bus.transDist::ReadSharedReq        928388                       # Transaction distribution (Count)
system.tol2bus.transDist::InvalidateReq           144                       # Transaction distribution (Count)
system.tol2bus.transDist::InvalidateResp          144                       # Transaction distribution (Count)
system.tol2bus.pktCount_system.cpu.icache.mem_side_port::system.l2.cpu_side_port         5820                       # Packet count per connected requestor and responder (Count)
system.tol2bus.pktCount_system.cpu.dcache.mem_side_port::system.l2.cpu_side_port      2790929                       # Packet count per connected requestor and responder (Count)
system.tol2bus.pktCount::total                2796749                       # Packet count per connected requestor and responder (Count)
system.tol2bus.pktSize_system.cpu.icache.mem_side_port::system.l2.cpu_side_port       242816                       # Cumulative packet size per connected requestor and responder (Byte)
system.tol2bus.pktSize_system.cpu.dcache.mem_side_port::system.l2.cpu_side_port    105423680                       # Cumulative packet size per connected requestor and responder (Byte)
system.tol2bus.pktSize::total               105666496                       # Cumulative packet size per connected requestor and responder (Byte)
system.tol2bus.snoops                          241017                       # Total snoops (Count)
system.tol2bus.snoopTraffic                  12922176                       # Total snoop traffic (Byte)
system.tol2bus.snoopFanout::samples           1173694                       # Request fanout histogram (Count)
system.tol2bus.snoopFanout::mean             0.000665                       # Request fanout histogram (Count)
system.tol2bus.snoopFanout::stdev            0.025787                       # Request fanout histogram (Count)
system.tol2bus.snoopFanout::underflows              0      0.00%      0.00% # Request fanout histogram (Count)
system.tol2bus.snoopFanout::0                 1172913     99.93%     99.93% # Request fanout histogram (Count)
system.tol2bus.snoopFanout::1                     781      0.07%    100.00% # Request fanout histogram (Count)
system.tol2bus.snoopFanout::2                       0      0.00%    100.00% # Request fanout histogram (Count)
system.tol2bus.snoopFanout::overflows               0      0.00%    100.00% # Request fanout histogram (Count)
system.tol2bus.snoopFanout::min_value               0                       # Request fanout histogram (Count)
system.tol2bus.snoopFanout::max_value               1                       # Request fanout histogram (Count)
system.tol2bus.snoopFanout::total             1173694                       # Request fanout histogram (Count)
system.tol2bus.power_state.pwrStateResidencyTicks::UNDEFINED  87849192000                       # Cumulative time (in ticks) in various power states (Tick)
system.tol2bus.reqLayer0.occupancy         1650543500                       # Layer occupancy (ticks) (Tick)
system.tol2bus.reqLayer0.utilization              0.0                       # Layer utilization (Ratio)
system.tol2bus.respLayer0.occupancy           3038997                       # Layer occupancy (ticks) (Tick)
system.tol2bus.respLayer0.utilization             0.0                       # Layer utilization (Ratio)
system.tol2bus.respLayer1.occupancy        1395832500                       # Layer occupancy (ticks) (Tick)
system.tol2bus.respLayer1.utilization             0.0                       # Layer utilization (Ratio)
system.tol2bus.snoop_filter.totRequests       1864073                       # Total number of requests made to the snoop filter. (Count)
system.tol2bus.snoop_filter.hitSingleRequests       931396                       # Number of requests hitting in the snoop filter with a single holder of the requested data. (Count)
system.tol2bus.snoop_filter.hitMultiRequests            1                       # Number of requests hitting in the snoop filter with multiple (>1) holders of the requested data. (Count)
system.tol2bus.snoop_filter.totSnoops             780                       # Total number of snoops made to the snoop filter. (Count)
system.tol2bus.snoop_filter.hitSingleSnoops          780                       # Number of snoops hitting in the snoop filter with a single holder of the requested data. (Count)
system.tol2bus.snoop_filter.hitMultiSnoops            0                       # Number of snoops hitting in the snoop filter with multiple (>1) holders of the requested data. (Count)
system.voltage_domain.voltage                       1                       # Voltage in Volts (Volt)
system.workload.inst.arm                            0                       # number of arm instructions executed (Count)
system.workload.inst.quiesce                        0                       # number of quiesce instructions executed (Count)

---------- End Simulation Statistics   ----------
