
---------- Begin Simulation Statistics ----------
simSeconds                                   0.004219                       # Number of seconds simulated (Second)
simTicks                                   4219040000                       # Number of ticks simulated (Tick)
finalTick                                  4219040000                       # Number of ticks from beginning of simulation (restored from checkpoints and never reset) (Tick)
simFreq                                  1000000000000                       # The number of ticks per simulated second ((Tick/Second))
hostSeconds                                     24.59                       # Real time elapsed on the host (Second)
hostTickRate                                171595916                       # The number of ticks simulated per host second (ticks/s) ((Tick/Second))
hostMemory                                     682164                       # Number of bytes of host memory used (Byte)
simInsts                                      7201028                       # Number of instructions simulated (Count)
simOps                                        7615984                       # Number of ops (including micro ops) simulated (Count)
hostInstRate                                   292877                       # Simulator instruction rate (inst/s) ((Count/Second))
hostOpRate                                     309754                       # Simulator op (including micro ops) rate (op/s) ((Count/Second))
system.clk_domain.clock                          1000                       # Clock period in ticks (Tick)
system.cpu.numCycles                          8438081                       # Number of cpu cycles simulated (Cycle)
system.cpu.numWorkItemsStarted                      0                       # Number of work items this cpu started (Count)
system.cpu.numWorkItemsCompleted                    0                       # Number of work items this cpu completed (Count)
system.cpu.instsAdded                         8193532                       # Number of instructions added to the IQ (excludes non-spec) (Count)
system.cpu.nonSpecInstsAdded                      419                       # Number of non-speculative instructions added to the IQ (Count)
system.cpu.instsIssued                        8008957                       # Number of instructions issued (Count)
system.cpu.squashedInstsIssued                   3647                       # Number of squashed instructions issued (Count)
system.cpu.squashedInstsExamined               577966                       # Number of squashed instructions iterated over during squash; mainly for profiling (Count)
system.cpu.squashedOperandsExamined            442247                       # Number of squashed operands that are examined and possibly removed from graph (Count)
system.cpu.squashedNonSpecRemoved                 146                       # Number of squashed non-spec instructions that were removed (Count)
system.cpu.numIssuedDist::samples             8284501                       # Number of insts issued each cycle (Count)
system.cpu.numIssuedDist::mean               0.966740                       # Number of insts issued each cycle (Count)
system.cpu.numIssuedDist::stdev              1.294564                       # Number of insts issued each cycle (Count)
system.cpu.numIssuedDist::underflows                0      0.00%      0.00% # Number of insts issued each cycle (Count)
system.cpu.numIssuedDist::0                   3913820     47.24%     47.24% # Number of insts issued each cycle (Count)
system.cpu.numIssuedDist::1                   2357739     28.46%     75.70% # Number of insts issued each cycle (Count)
system.cpu.numIssuedDist::2                   1182337     14.27%     89.97% # Number of insts issued each cycle (Count)
system.cpu.numIssuedDist::3                    441577      5.33%     95.30% # Number of insts issued each cycle (Count)
system.cpu.numIssuedDist::4                    198719      2.40%     97.70% # Number of insts issued each cycle (Count)
system.cpu.numIssuedDist::5                     71038      0.86%     98.56% # Number of insts issued each cycle (Count)
system.cpu.numIssuedDist::6                     56390      0.68%     99.24% # Number of insts issued each cycle (Count)
system.cpu.numIssuedDist::7                     29641      0.36%     99.60% # Number of insts issued each cycle (Count)
system.cpu.numIssuedDist::8                     33240      0.40%    100.00% # Number of insts issued each cycle (Count)
system.cpu.numIssuedDist::overflows                 0      0.00%    100.00% # Number of insts issued each cycle (Count)
system.cpu.numIssuedDist::min_value                 0                       # Number of insts issued each cycle (Count)
system.cpu.numIssuedDist::max_value                 8                       # Number of insts issued each cycle (Count)
system.cpu.numIssuedDist::total               8284501                       # Number of insts issued each cycle (Count)
system.cpu.statFuBusy::No_OpClass                   0      0.00%      0.00% # attempts to use FU when none available (Count)
system.cpu.statFuBusy::IntAlu                   19483      0.30%      0.30% # attempts to use FU when none available (Count)
system.cpu.statFuBusy::IntMult                  45273      0.70%      1.00% # attempts to use FU when none available (Count)
system.cpu.statFuBusy::IntDiv                 6362099     98.40%     99.40% # attempts to use FU when none available (Count)
system.cpu.statFuBusy::FloatAdd                     0      0.00%     99.40% # attempts to use FU when none available (Count)
system.cpu.statFuBusy::FloatCmp                     0      0.00%     99.40% # attempts to use FU when none available (Count)
system.cpu.statFuBusy::FloatCvt                     0      0.00%     99.40% # attempts to use FU when none available (Count)
system.cpu.statFuBusy::FloatMult                    0      0.00%     99.40% # attempts to use FU when none available (Count)
system.cpu.statFuBusy::FloatMultAcc                 0      0.00%     99.40% # attempts to use FU when none available (Count)
system.cpu.statFuBusy::FloatDiv                     0      0.00%     99.40% # attempts to use FU when none available (Count)
system.cpu.statFuBusy::FloatMisc                    0      0.00%     99.40% # attempts to use FU when none available (Count)
system.cpu.statFuBusy::FloatSqrt                    0      0.00%     99.40% # attempts to use FU when none available (Count)
system.cpu.statFuBusy::SimdAdd                      0      0.00%     99.40% # attempts to use FU when none available (Count)
system.cpu.statFuBusy::SimdAddAcc                   0      0.00%     99.40% # attempts to use FU when none available (Count)
system.cpu.statFuBusy::SimdAlu                    231      0.00%     99.41% # attempts to use FU when none available (Count)
system.cpu.statFuBusy::SimdCmp                     15      0.00%     99.41% # attempts to use FU when none available (Count)
system.cpu.statFuBusy::SimdCvt                      0      0.00%     99.41% # attempts to use FU when none available (Count)
system.cpu.statFuBusy::SimdMisc                     0      0.00%     99.41% # attempts to use FU when none available (Count)
system.cpu.statFuBusy::SimdMult                     0      0.00%     99.41% # attempts to use FU when none available (Count)
system.cpu.statFuBusy::SimdMultAcc                  0      0.00%     99.41% # attempts to use FU when none available (Count)
system.cpu.statFuBusy::SimdShift                    0      0.00%     99.41% # attempts to use FU when none available (Count)
system.cpu.statFuBusy::SimdShiftAcc                 0      0.00%     99.41% # attempts to use FU when none available (Count)
system.cpu.statFuBusy::SimdDiv                      0      0.00%     99.41% # attempts to use FU when none available (Count)
system.cpu.statFuBusy::SimdSqrt                     0      0.00%     99.41% # attempts to use FU when none available (Count)
system.cpu.statFuBusy::SimdFloatAdd                 0      0.00%     99.41% # attempts to use FU when none available (Count)
system.cpu.statFuBusy::SimdFloatAlu                 0      0.00%     99.41% # attempts to use FU when none available (Count)
system.cpu.statFuBusy::SimdFloatCmp                 0      0.00%     99.41% # attempts to use FU when none available (Count)
system.cpu.statFuBusy::SimdFloatCvt                 0      0.00%     99.41% # attempts to use FU when none available (Count)
system.cpu.statFuBusy::SimdFloatDiv                 0      0.00%     99.41% # attempts to use FU when none available (Count)
system.cpu.statFuBusy::SimdFloatMisc                0      0.00%     99.41% # attempts to use FU when none available (Count)
system.cpu.statFuBusy::SimdFloatMult                0      0.00%     99.41% # attempts to use FU when none available (Count)
system.cpu.statFuBusy::SimdFloatMultAcc             0      0.00%     99.41% # attempts to use FU when none available (Count)
system.cpu.statFuBusy::SimdFloatSqrt                0      0.00%     99.41% # attempts to use FU when none available (Count)
system.cpu.statFuBusy::SimdReduceAdd                0      0.00%     99.41% # attempts to use FU when none available (Count)
system.cpu.statFuBusy::SimdReduceAlu                0      0.00%     99.41% # attempts to use FU when none available (Count)
system.cpu.statFuBusy::SimdReduceCmp                0      0.00%     99.41% # attempts to use FU when none available (Count)
system.cpu.statFuBusy::SimdFloatReduceAdd            0      0.00%     99.41% # attempts to use FU when none available (Count)
system.cpu.statFuBusy::SimdFloatReduceCmp            0      0.00%     99.41% # attempts to use FU when none available (Count)
system.cpu.statFuBusy::SimdAes                      0      0.00%     99.41% # attempts to use FU when none available (Count)
system.cpu.statFuBusy::SimdAesMix                   0      0.00%     99.41% # attempts to use FU when none available (Count)
system.cpu.statFuBusy::SimdSha1Hash                 0      0.00%     99.41% # attempts to use FU when none available (Count)
system.cpu.statFuBusy::SimdSha1Hash2                0      0.00%     99.41% # attempts to use FU when none available (Count)
system.cpu.statFuBusy::SimdSha256Hash               0      0.00%     99.41% # attempts to use FU when none available (Count)
system.cpu.statFuBusy::SimdSha256Hash2              0      0.00%     99.41% # attempts to use FU when none available (Count)
system.cpu.statFuBusy::SimdShaSigma2                0      0.00%     99.41% # attempts to use FU when none available (Count)
system.cpu.statFuBusy::SimdShaSigma3                0      0.00%     99.41% # attempts to use FU when none available (Count)
system.cpu.statFuBusy::SimdPredAlu                  0      0.00%     99.41% # attempts to use FU when none available (Count)
system.cpu.statFuBusy::MemRead                  23382      0.36%     99.77% # attempts to use FU when none available (Count)
system.cpu.statFuBusy::MemWrite                 14947      0.23%    100.00% # attempts to use FU when none available (Count)
system.cpu.statFuBusy::FloatMemRead                 0      0.00%    100.00% # attempts to use FU when none available (Count)
system.cpu.statFuBusy::FloatMemWrite                0      0.00%    100.00% # attempts to use FU when none available (Count)
system.cpu.statFuBusy::IprAccess                    0      0.00%    100.00% # attempts to use FU when none available (Count)
system.cpu.statFuBusy::InstPrefetch                 0      0.00%    100.00% # attempts to use FU when none available (Count)
system.cpu.statIssuedInstType_0::No_OpClass        58086      0.73%      0.73% # Number of instructions issued per FU type, per thread (Count)
system.cpu.statIssuedInstType_0::IntAlu       5688989     71.03%     71.76% # Number of instructions issued per FU type, per thread (Count)
system.cpu.statIssuedInstType_0::IntMult       617049      7.70%     79.46% # Number of instructions issued per FU type, per thread (Count)
system.cpu.statIssuedInstType_0::IntDiv        608846      7.60%     87.06% # Number of instructions issued per FU type, per thread (Count)
system.cpu.statIssuedInstType_0::FloatAdd            0      0.00%     87.06% # Number of instructions issued per FU type, per thread (Count)
system.cpu.statIssuedInstType_0::FloatCmp            2      0.00%     87.06% # Number of instructions issued per FU type, per thread (Count)
system.cpu.statIssuedInstType_0::FloatCvt            1      0.00%     87.06% # Number of instructions issued per FU type, per thread (Count)
system.cpu.statIssuedInstType_0::FloatMult            1      0.00%     87.06% # Number of instructions issued per FU type, per thread (Count)
system.cpu.statIssuedInstType_0::FloatMultAcc            0      0.00%     87.06% # Number of instructions issued per FU type, per thread (Count)
system.cpu.statIssuedInstType_0::FloatDiv            1      0.00%     87.06% # Number of instructions issued per FU type, per thread (Count)
system.cpu.statIssuedInstType_0::FloatMisc            7      0.00%     87.06% # Number of instructions issued per FU type, per thread (Count)
system.cpu.statIssuedInstType_0::FloatSqrt            0      0.00%     87.06% # Number of instructions issued per FU type, per thread (Count)
system.cpu.statIssuedInstType_0::SimdAdd        14467      0.18%     87.25% # Number of instructions issued per FU type, per thread (Count)
system.cpu.statIssuedInstType_0::SimdAddAcc            0      0.00%     87.25% # Number of instructions issued per FU type, per thread (Count)
system.cpu.statIssuedInstType_0::SimdAlu       129327      1.61%     88.86% # Number of instructions issued per FU type, per thread (Count)
system.cpu.statIssuedInstType_0::SimdCmp          129      0.00%     88.86% # Number of instructions issued per FU type, per thread (Count)
system.cpu.statIssuedInstType_0::SimdCvt            0      0.00%     88.86% # Number of instructions issued per FU type, per thread (Count)
system.cpu.statIssuedInstType_0::SimdMisc        14498      0.18%     89.04% # Number of instructions issued per FU type, per thread (Count)
system.cpu.statIssuedInstType_0::SimdMult            0      0.00%     89.04% # Number of instructions issued per FU type, per thread (Count)
system.cpu.statIssuedInstType_0::SimdMultAcc            0      0.00%     89.04% # Number of instructions issued per FU type, per thread (Count)
system.cpu.statIssuedInstType_0::SimdShift            0      0.00%     89.04% # Number of instructions issued per FU type, per thread (Count)
system.cpu.statIssuedInstType_0::SimdShiftAcc            0      0.00%     89.04% # Number of instructions issued per FU type, per thread (Count)
system.cpu.statIssuedInstType_0::SimdDiv            0      0.00%     89.04% # Number of instructions issued per FU type, per thread (Count)
system.cpu.statIssuedInstType_0::SimdSqrt            0      0.00%     89.04% # Number of instructions issued per FU type, per thread (Count)
system.cpu.statIssuedInstType_0::SimdFloatAdd            0      0.00%     89.04% # Number of instructions issued per FU type, per thread (Count)
system.cpu.statIssuedInstType_0::SimdFloatAlu            0      0.00%     89.04% # Number of instructions issued per FU type, per thread (Count)
system.cpu.statIssuedInstType_0::SimdFloatCmp            0      0.00%     89.04% # Number of instructions issued per FU type, per thread (Count)
system.cpu.statIssuedInstType_0::SimdFloatCvt            0      0.00%     89.04% # Number of instructions issued per FU type, per thread (Count)
system.cpu.statIssuedInstType_0::SimdFloatDiv            0      0.00%     89.04% # Number of instructions issued per FU type, per thread (Count)
system.cpu.statIssuedInstType_0::SimdFloatMisc            0      0.00%     89.04% # Number of instructions issued per FU type, per thread (Count)
system.cpu.statIssuedInstType_0::SimdFloatMult            0      0.00%     89.04% # Number of instructions issued per FU type, per thread (Count)
system.cpu.statIssuedInstType_0::SimdFloatMultAcc            0      0.00%     89.04% # Number of instructions issued per FU type, per thread (Count)
system.cpu.statIssuedInstType_0::SimdFloatSqrt            0      0.00%     89.04% # Number of instructions issued per FU type, per thread (Count)
system.cpu.statIssuedInstType_0::SimdReduceAdd            0      0.00%     89.04% # Number of instructions issued per FU type, per thread (Count)
system.cpu.statIssuedInstType_0::SimdReduceAlu            0      0.00%     89.04% # Number of instructions issued per FU type, per thread (Count)
system.cpu.statIssuedInstType_0::SimdReduceCmp            0      0.00%     89.04% # Number of instructions issued per FU type, per thread (Count)
system.cpu.statIssuedInstType_0::SimdFloatReduceAdd            0      0.00%     89.04% # Number of instructions issued per FU type, per thread (Count)
system.cpu.statIssuedInstType_0::SimdFloatReduceCmp            0      0.00%     89.04% # Number of instructions issued per FU type, per thread (Count)
system.cpu.statIssuedInstType_0::SimdAes            0      0.00%     89.04% # Number of instructions issued per FU type, per thread (Count)
system.cpu.statIssuedInstType_0::SimdAesMix            0      0.00%     89.04% # Number of instructions issued per FU type, per thread (Count)
system.cpu.statIssuedInstType_0::SimdSha1Hash            0      0.00%     89.04% # Number of instructions issued per FU type, per thread (Count)
system.cpu.statIssuedInstType_0::SimdSha1Hash2            0      0.00%     89.04% # Number of instructions issued per FU type, per thread (Count)
system.cpu.statIssuedInstType_0::SimdSha256Hash            0      0.00%     89.04% # Number of instructions issued per FU type, per thread (Count)
system.cpu.statIssuedInstType_0::SimdSha256Hash2            0      0.00%     89.04% # Number of instructions issued per FU type, per thread (Count)
system.cpu.statIssuedInstType_0::SimdShaSigma2            0      0.00%     89.04% # Number of instructions issued per FU type, per thread (Count)
system.cpu.statIssuedInstType_0::SimdShaSigma3            0      0.00%     89.04% # Number of instructions issued per FU type, per thread (Count)
system.cpu.statIssuedInstType_0::SimdPredAlu            0      0.00%     89.04% # Number of instructions issued per FU type, per thread (Count)
system.cpu.statIssuedInstType_0::MemRead       653757      8.16%     97.21% # Number of instructions issued per FU type, per thread (Count)
system.cpu.statIssuedInstType_0::MemWrite       223797      2.79%    100.00% # Number of instructions issued per FU type, per thread (Count)
system.cpu.statIssuedInstType_0::FloatMemRead            0      0.00%    100.00% # Number of instructions issued per FU type, per thread (Count)
system.cpu.statIssuedInstType_0::FloatMemWrite            0      0.00%    100.00% # Number of instructions issued per FU type, per thread (Count)
system.cpu.statIssuedInstType_0::IprAccess            0      0.00%    100.00% # Number of instructions issued per FU type, per thread (Count)
system.cpu.statIssuedInstType_0::InstPrefetch            0      0.00%    100.00% # Number of instructions issued per FU type, per thread (Count)
system.cpu.statIssuedInstType_0::total        8008957                       # Number of instructions issued per FU type, per thread (Count)
system.cpu.issueRate                         0.949144                       # Inst issue rate ((Count/Cycle))
system.cpu.fuBusy                             6465430                       # FU busy when requested (Count)
system.cpu.fuBusyRate                        0.807275                       # FU busy rate (busy events/executed inst) ((Count/Count))
system.cpu.intInstQueueReads                 30102507                       # Number of integer instruction queue reads (Count)
system.cpu.intInstQueueWrites                 8431704                       # Number of integer instruction queue writes (Count)
system.cpu.intInstQueueWakeupAccesses         7582475                       # Number of integer instruction queue wakeup accesses (Count)
system.cpu.fpInstQueueReads                         0                       # Number of floating instruction queue reads (Count)
system.cpu.fpInstQueueWrites                        0                       # Number of floating instruction queue writes (Count)
system.cpu.fpInstQueueWakeupAccesses                0                       # Number of floating instruction queue wakeup accesses (Count)
system.cpu.vecInstQueueReads                   668985                       # Number of vector instruction queue reads (Count)
system.cpu.vecInstQueueWrites                  340285                       # Number of vector instruction queue writes (Count)
system.cpu.vecInstQueueWakeupAccesses          333536                       # Number of vector instruction queue wakeup accesses (Count)
system.cpu.intAluAccesses                    14138853                       # Number of integer alu accesses (Count)
system.cpu.fpAluAccesses                            0                       # Number of floating point alu accesses (Count)
system.cpu.vecAluAccesses                      277448                       # Number of vector alu accesses (Count)
system.cpu.numInsts                           7984462                       # Number of executed instructions (Count)
system.cpu.numLoadInsts                        641991                       # Number of load instructions executed (Count)
system.cpu.numSquashedInsts                     24495                       # Number of squashed instructions skipped in execute (Count)
system.cpu.numSwp                                   0                       # Number of swp insts executed (Count)
system.cpu.numNop                               26097                       # Number of nop insts executed (Count)
system.cpu.numRefs                             864203                       # Number of memory reference insts executed (Count)
system.cpu.numBranches                        1580493                       # Number of branches executed (Count)
system.cpu.numStoreInsts                       222212                       # Number of stores executed (Count)
system.cpu.numRate                           0.946241                       # Inst execution rate ((Count/Cycle))
system.cpu.timesIdled                            1637                       # Number of times that the entire CPU went into an idle state and unscheduled itself (Count)
system.cpu.idleCycles                          153580                       # Total number of cycles that the CPU has spent unscheduled due to idling (Cycle)
system.cpu.committedInsts                     7201028                       # Number of Instructions Simulated (Count)
system.cpu.committedOps                       7615984                       # Number of Ops (including micro ops) Simulated (Count)
system.cpu.cpi                               1.171788                       # CPI: Cycles Per Instruction ((Cycle/Count))
system.cpu.totalCpi                          1.171788                       # CPI: Total CPI of All Threads ((Cycle/Count))
system.cpu.ipc                               0.853396                       # IPC: Instructions Per Cycle ((Count/Cycle))
system.cpu.totalIpc                          0.853396                       # IPC: Total IPC of All Threads ((Count/Cycle))
system.cpu.intRegfileReads                   10095092                       # Number of integer regfile reads (Count)
system.cpu.intRegfileWrites                   4752291                       # Number of integer regfile writes (Count)
system.cpu.vecRegfileReads                     937049                       # number of vector regfile reads (Count)
system.cpu.ccRegfileReads                     3401355                       # number of cc regfile reads (Count)
system.cpu.ccRegfileWrites                    3396158                       # number of cc regfile writes (Count)
system.cpu.miscRegfileReads                   1577418                       # number of misc regfile reads (Count)
system.cpu.miscRegfileWrites                      215                       # number of misc regfile writes (Count)
system.cpu.MemDepUnit__0.insertedLoads         637015                       # Number of loads inserted to the mem dependence unit. (Count)
system.cpu.MemDepUnit__0.insertedStores        229621                       # Number of stores inserted to the mem dependence unit. (Count)
system.cpu.MemDepUnit__0.conflictingLoads         9326                       # Number of conflicting loads. (Count)
system.cpu.MemDepUnit__0.conflictingStores        13475                       # Number of conflicting stores. (Count)
system.cpu.MemDepUnit__1.insertedLoads              0                       # Number of loads inserted to the mem dependence unit. (Count)
system.cpu.MemDepUnit__1.insertedStores             0                       # Number of stores inserted to the mem dependence unit. (Count)
system.cpu.MemDepUnit__1.conflictingLoads            0                       # Number of conflicting loads. (Count)
system.cpu.MemDepUnit__1.conflictingStores            0                       # Number of conflicting stores. (Count)
system.cpu.MemDepUnit__2.insertedLoads              0                       # Number of loads inserted to the mem dependence unit. (Count)
system.cpu.MemDepUnit__2.insertedStores             0                       # Number of stores inserted to the mem dependence unit. (Count)
system.cpu.MemDepUnit__2.conflictingLoads            0                       # Number of conflicting loads. (Count)
system.cpu.MemDepUnit__2.conflictingStores            0                       # Number of conflicting stores. (Count)
system.cpu.MemDepUnit__3.insertedLoads              0                       # Number of loads inserted to the mem dependence unit. (Count)
system.cpu.MemDepUnit__3.insertedStores             0                       # Number of stores inserted to the mem dependence unit. (Count)
system.cpu.MemDepUnit__3.conflictingLoads            0                       # Number of conflicting loads. (Count)
system.cpu.MemDepUnit__3.conflictingStores            0                       # Number of conflicting stores. (Count)
system.cpu.branchPred.lookups                 1709092                       # Number of BP lookups (Count)
system.cpu.branchPred.condPredicted           1634060                       # Number of conditional branches predicted (Count)
system.cpu.branchPred.condIncorrect             16098                       # Number of conditional branches incorrect (Count)
system.cpu.branchPred.BTBLookups              1073434                       # Number of BTB lookups (Count)
system.cpu.branchPred.BTBUpdates                 8020                       # Number of BTB updates (Count)
system.cpu.branchPred.BTBHits                 1070212                       # Number of BTB hits (Count)
system.cpu.branchPred.BTBHitRatio            0.996998                       # BTB Hit Ratio (Ratio)
system.cpu.branchPred.RASUsed                   17675                       # Number of times the RAS was used to get a target. (Count)
system.cpu.branchPred.RASIncorrect                 43                       # Number of incorrect RAS predictions. (Count)
system.cpu.branchPred.indirectLookups            6816                       # Number of indirect predictor lookups. (Count)
system.cpu.branchPred.indirectHits               1359                       # Number of indirect target hits. (Count)
system.cpu.branchPred.indirectMisses             5457                       # Number of indirect misses. (Count)
system.cpu.branchPred.indirectMispredicted          695                       # Number of mispredicted indirect branches. (Count)
system.cpu.commit.commitSquashedInsts          575893                       # The number of squashed insts skipped by commit (Count)
system.cpu.commit.commitNonSpecStalls             273                       # The number of times commit has been forced to stall to communicate backwards (Count)
system.cpu.commit.branchMispredicts             15735                       # The number of times a branch was mispredicted (Count)
system.cpu.commit.numCommittedDist::samples      8195001                       # Number of insts commited each cycle (Count)
system.cpu.commit.numCommittedDist::mean     0.932476                       # Number of insts commited each cycle (Count)
system.cpu.commit.numCommittedDist::stdev     2.114773                       # Number of insts commited each cycle (Count)
system.cpu.commit.numCommittedDist::underflows            0      0.00%      0.00% # Number of insts commited each cycle (Count)
system.cpu.commit.numCommittedDist::0         6233676     76.07%     76.07% # Number of insts commited each cycle (Count)
system.cpu.commit.numCommittedDist::1          454943      5.55%     81.62% # Number of insts commited each cycle (Count)
system.cpu.commit.numCommittedDist::2          332051      4.05%     85.67% # Number of insts commited each cycle (Count)
system.cpu.commit.numCommittedDist::3          329069      4.02%     89.69% # Number of insts commited each cycle (Count)
system.cpu.commit.numCommittedDist::4          237362      2.90%     92.58% # Number of insts commited each cycle (Count)
system.cpu.commit.numCommittedDist::5           76225      0.93%     93.51% # Number of insts commited each cycle (Count)
system.cpu.commit.numCommittedDist::6           14635      0.18%     93.69% # Number of insts commited each cycle (Count)
system.cpu.commit.numCommittedDist::7           19316      0.24%     93.93% # Number of insts commited each cycle (Count)
system.cpu.commit.numCommittedDist::8          497724      6.07%    100.00% # Number of insts commited each cycle (Count)
system.cpu.commit.numCommittedDist::overflows            0      0.00%    100.00% # Number of insts commited each cycle (Count)
system.cpu.commit.numCommittedDist::min_value            0                       # Number of insts commited each cycle (Count)
system.cpu.commit.numCommittedDist::max_value            8                       # Number of insts commited each cycle (Count)
system.cpu.commit.numCommittedDist::total      8195001                       # Number of insts commited each cycle (Count)
system.cpu.commit.instsCommitted              7226683                       # Number of instructions committed (Count)
system.cpu.commit.opsCommitted                7641639                       # Number of ops (including micro ops) committed (Count)
system.cpu.commit.memRefs                      721146                       # Number of memory references committed (Count)
system.cpu.commit.loads                        528728                       # Number of loads committed (Count)
system.cpu.commit.amos                            104                       # Number of atomic instructions committed (Count)
system.cpu.commit.membars                         112                       # Number of memory barriers committed (Count)
system.cpu.commit.branches                    1529938                       # Number of branches committed (Count)
system.cpu.commit.vectorInstructions           331463                       # Number of committed Vector instructions. (Count)
system.cpu.commit.floating                          0                       # Number of committed floating point instructions. (Count)
system.cpu.commit.integer                     6704547                       # Number of committed integer instructions. (Count)
system.cpu.commit.functionCalls                 11073                       # Number of function calls committed. (Count)
system.cpu.commit.committedInstType_0::No_OpClass        57345      0.75%      0.75% # Class of committed instruction (Count)
system.cpu.commit.committedInstType_0::IntAlu      5481423     71.73%     72.48% # Class of committed instruction (Count)
system.cpu.commit.committedInstType_0::IntMult       616327      8.07%     80.55% # Class of committed instruction (Count)
system.cpu.commit.committedInstType_0::IntDiv       608267      7.96%     88.51% # Class of committed instruction (Count)
system.cpu.commit.committedInstType_0::FloatAdd            0      0.00%     88.51% # Class of committed instruction (Count)
system.cpu.commit.committedInstType_0::FloatCmp            2      0.00%     88.51% # Class of committed instruction (Count)
system.cpu.commit.committedInstType_0::FloatCvt            1      0.00%     88.51% # Class of committed instruction (Count)
system.cpu.commit.committedInstType_0::FloatMult            1      0.00%     88.51% # Class of committed instruction (Count)
system.cpu.commit.committedInstType_0::FloatMultAcc            0      0.00%     88.51% # Class of committed instruction (Count)
system.cpu.commit.committedInstType_0::FloatDiv            1      0.00%     88.51% # Class of committed instruction (Count)
system.cpu.commit.committedInstType_0::FloatMisc            7      0.00%     88.51% # Class of committed instruction (Count)
system.cpu.commit.committedInstType_0::FloatSqrt            0      0.00%     88.51% # Class of committed instruction (Count)
system.cpu.commit.committedInstType_0::SimdAdd        14160      0.19%     88.69% # Class of committed instruction (Count)
system.cpu.commit.committedInstType_0::SimdAddAcc            0      0.00%     88.69% # Class of committed instruction (Count)
system.cpu.commit.committedInstType_0::SimdAlu       128672      1.68%     90.38% # Class of committed instruction (Count)
system.cpu.commit.committedInstType_0::SimdCmp          101      0.00%     90.38% # Class of committed instruction (Count)
system.cpu.commit.committedInstType_0::SimdCvt            0      0.00%     90.38% # Class of committed instruction (Count)
system.cpu.commit.committedInstType_0::SimdMisc        14186      0.19%     90.56% # Class of committed instruction (Count)
system.cpu.commit.committedInstType_0::SimdMult            0      0.00%     90.56% # Class of committed instruction (Count)
system.cpu.commit.committedInstType_0::SimdMultAcc            0      0.00%     90.56% # Class of committed instruction (Count)
system.cpu.commit.committedInstType_0::SimdShift            0      0.00%     90.56% # Class of committed instruction (Count)
system.cpu.commit.committedInstType_0::SimdShiftAcc            0      0.00%     90.56% # Class of committed instruction (Count)
system.cpu.commit.committedInstType_0::SimdDiv            0      0.00%     90.56% # Class of committed instruction (Count)
system.cpu.commit.committedInstType_0::SimdSqrt            0      0.00%     90.56% # Class of committed instruction (Count)
system.cpu.commit.committedInstType_0::SimdFloatAdd            0      0.00%     90.56% # Class of committed instruction (Count)
system.cpu.commit.committedInstType_0::SimdFloatAlu            0      0.00%     90.56% # Class of committed instruction (Count)
system.cpu.commit.committedInstType_0::SimdFloatCmp            0      0.00%     90.56% # Class of committed instruction (Count)
system.cpu.commit.committedInstType_0::SimdFloatCvt            0      0.00%     90.56% # Class of committed instruction (Count)
system.cpu.commit.committedInstType_0::SimdFloatDiv            0      0.00%     90.56% # Class of committed instruction (Count)
system.cpu.commit.committedInstType_0::SimdFloatMisc            0      0.00%     90.56% # Class of committed instruction (Count)
system.cpu.commit.committedInstType_0::SimdFloatMult            0      0.00%     90.56% # Class of committed instruction (Count)
system.cpu.commit.committedInstType_0::SimdFloatMultAcc            0      0.00%     90.56% # Class of committed instruction (Count)
system.cpu.commit.committedInstType_0::SimdFloatSqrt            0      0.00%     90.56% # Class of committed instruction (Count)
system.cpu.commit.committedInstType_0::SimdReduceAdd            0      0.00%     90.56% # Class of committed instruction (Count)
system.cpu.commit.committedInstType_0::SimdReduceAlu            0      0.00%     90.56% # Class of committed instruction (Count)
system.cpu.commit.committedInstType_0::SimdReduceCmp            0      0.00%     90.56% # Class of committed instruction (Count)
system.cpu.commit.committedInstType_0::SimdFloatReduceAdd            0      0.00%     90.56% # Class of committed instruction (Count)
system.cpu.commit.committedInstType_0::SimdFloatReduceCmp            0      0.00%     90.56% # Class of committed instruction (Count)
system.cpu.commit.committedInstType_0::SimdAes            0      0.00%     90.56% # Class of committed instruction (Count)
system.cpu.commit.committedInstType_0::SimdAesMix            0      0.00%     90.56% # Class of committed instruction (Count)
system.cpu.commit.committedInstType_0::SimdSha1Hash            0      0.00%     90.56% # Class of committed instruction (Count)
system.cpu.commit.committedInstType_0::SimdSha1Hash2            0      0.00%     90.56% # Class of committed instruction (Count)
system.cpu.commit.committedInstType_0::SimdSha256Hash            0      0.00%     90.56% # Class of committed instruction (Count)
system.cpu.commit.committedInstType_0::SimdSha256Hash2            0      0.00%     90.56% # Class of committed instruction (Count)
system.cpu.commit.committedInstType_0::SimdShaSigma2            0      0.00%     90.56% # Class of committed instruction (Count)
system.cpu.commit.committedInstType_0::SimdShaSigma3            0      0.00%     90.56% # Class of committed instruction (Count)
system.cpu.commit.committedInstType_0::SimdPredAlu            0      0.00%     90.56% # Class of committed instruction (Count)
system.cpu.commit.committedInstType_0::MemRead       528728      6.92%     97.48% # Class of committed instruction (Count)
system.cpu.commit.committedInstType_0::MemWrite       192418      2.52%    100.00% # Class of committed instruction (Count)
system.cpu.commit.committedInstType_0::FloatMemRead            0      0.00%    100.00% # Class of committed instruction (Count)
system.cpu.commit.committedInstType_0::FloatMemWrite            0      0.00%    100.00% # Class of committed instruction (Count)
system.cpu.commit.committedInstType_0::IprAccess            0      0.00%    100.00% # Class of committed instruction (Count)
system.cpu.commit.committedInstType_0::InstPrefetch            0      0.00%    100.00% # Class of committed instruction (Count)
system.cpu.commit.committedInstType_0::total      7641639                       # Class of committed instruction (Count)
system.cpu.commit.commitEligibleSamples        497724                       # number cycles where commit BW limit reached (Cycle)
system.cpu.dcache.demandHits::cpu.data         677623                       # number of demand (read+write) hits (Count)
system.cpu.dcache.demandHits::total            677623                       # number of demand (read+write) hits (Count)
system.cpu.dcache.overallHits::cpu.data        677623                       # number of overall hits (Count)
system.cpu.dcache.overallHits::total           677623                       # number of overall hits (Count)
system.cpu.dcache.demandMisses::cpu.data        92587                       # number of demand (read+write) misses (Count)
system.cpu.dcache.demandMisses::total           92587                       # number of demand (read+write) misses (Count)
system.cpu.dcache.overallMisses::cpu.data        92587                       # number of overall misses (Count)
system.cpu.dcache.overallMisses::total          92587                       # number of overall misses (Count)
system.cpu.dcache.demandMissLatency::cpu.data   5009516490                       # number of demand (read+write) miss ticks (Tick)
system.cpu.dcache.demandMissLatency::total   5009516490                       # number of demand (read+write) miss ticks (Tick)
system.cpu.dcache.overallMissLatency::cpu.data   5009516490                       # number of overall miss ticks (Tick)
system.cpu.dcache.overallMissLatency::total   5009516490                       # number of overall miss ticks (Tick)
system.cpu.dcache.demandAccesses::cpu.data       770210                       # number of demand (read+write) accesses (Count)
system.cpu.dcache.demandAccesses::total        770210                       # number of demand (read+write) accesses (Count)
system.cpu.dcache.overallAccesses::cpu.data       770210                       # number of overall (read+write) accesses (Count)
system.cpu.dcache.overallAccesses::total       770210                       # number of overall (read+write) accesses (Count)
system.cpu.dcache.demandMissRate::cpu.data     0.120210                       # miss rate for demand accesses (Ratio)
system.cpu.dcache.demandMissRate::total      0.120210                       # miss rate for demand accesses (Ratio)
system.cpu.dcache.overallMissRate::cpu.data     0.120210                       # miss rate for overall accesses (Ratio)
system.cpu.dcache.overallMissRate::total     0.120210                       # miss rate for overall accesses (Ratio)
system.cpu.dcache.demandAvgMissLatency::cpu.data 54106.046097                       # average overall miss latency in ticks ((Tick/Count))
system.cpu.dcache.demandAvgMissLatency::total 54106.046097                       # average overall miss latency in ticks ((Tick/Count))
system.cpu.dcache.overallAvgMissLatency::cpu.data 54106.046097                       # average overall miss latency ((Tick/Count))
system.cpu.dcache.overallAvgMissLatency::total 54106.046097                       # average overall miss latency ((Tick/Count))
system.cpu.dcache.blockedCycles::no_mshrs        92832                       # number of cycles access was blocked (Cycle)
system.cpu.dcache.blockedCycles::no_targets          481                       # number of cycles access was blocked (Cycle)
system.cpu.dcache.blockedCauses::no_mshrs         2077                       # number of times access was blocked (Count)
system.cpu.dcache.blockedCauses::no_targets           12                       # number of times access was blocked (Count)
system.cpu.dcache.avgBlocked::no_mshrs      44.695234                       # average number of cycles each access was blocked ((Cycle/Count))
system.cpu.dcache.avgBlocked::no_targets    40.083333                       # average number of cycles each access was blocked ((Cycle/Count))
system.cpu.dcache.writebacks::writebacks         3185                       # number of writebacks (Count)
system.cpu.dcache.writebacks::total              3185                       # number of writebacks (Count)
system.cpu.dcache.demandMshrHits::cpu.data        51024                       # number of demand (read+write) MSHR hits (Count)
system.cpu.dcache.demandMshrHits::total         51024                       # number of demand (read+write) MSHR hits (Count)
system.cpu.dcache.overallMshrHits::cpu.data        51024                       # number of overall MSHR hits (Count)
system.cpu.dcache.overallMshrHits::total        51024                       # number of overall MSHR hits (Count)
system.cpu.dcache.demandMshrMisses::cpu.data        41563                       # number of demand (read+write) MSHR misses (Count)
system.cpu.dcache.demandMshrMisses::total        41563                       # number of demand (read+write) MSHR misses (Count)
system.cpu.dcache.overallMshrMisses::cpu.data        41563                       # number of overall MSHR misses (Count)
system.cpu.dcache.overallMshrMisses::total        41563                       # number of overall MSHR misses (Count)
system.cpu.dcache.demandMshrMissLatency::cpu.data   1547026701                       # number of demand (read+write) MSHR miss ticks (Tick)
system.cpu.dcache.demandMshrMissLatency::total   1547026701                       # number of demand (read+write) MSHR miss ticks (Tick)
system.cpu.dcache.overallMshrMissLatency::cpu.data   1547026701                       # number of overall MSHR miss ticks (Tick)
system.cpu.dcache.overallMshrMissLatency::total   1547026701                       # number of overall MSHR miss ticks (Tick)
system.cpu.dcache.demandMshrMissRate::cpu.data     0.053963                       # mshr miss ratio for demand accesses (Ratio)
system.cpu.dcache.demandMshrMissRate::total     0.053963                       # mshr miss ratio for demand accesses (Ratio)
system.cpu.dcache.overallMshrMissRate::cpu.data     0.053963                       # mshr miss ratio for overall accesses (Ratio)
system.cpu.dcache.overallMshrMissRate::total     0.053963                       # mshr miss ratio for overall accesses (Ratio)
system.cpu.dcache.demandAvgMshrMissLatency::cpu.data 37221.247287                       # average overall mshr miss latency ((Tick/Count))
system.cpu.dcache.demandAvgMshrMissLatency::total 37221.247287                       # average overall mshr miss latency ((Tick/Count))
system.cpu.dcache.overallAvgMshrMissLatency::cpu.data 37221.247287                       # average overall mshr miss latency ((Tick/Count))
system.cpu.dcache.overallAvgMshrMissLatency::total 37221.247287                       # average overall mshr miss latency ((Tick/Count))
system.cpu.dcache.replacements                  40544                       # number of replacements (Count)
system.cpu.dcache.ReadReq.hits::cpu.data       491118                       # number of ReadReq hits (Count)
system.cpu.dcache.ReadReq.hits::total          491118                       # number of ReadReq hits (Count)
system.cpu.dcache.ReadReq.misses::cpu.data        86764                       # number of ReadReq misses (Count)
system.cpu.dcache.ReadReq.misses::total         86764                       # number of ReadReq misses (Count)
system.cpu.dcache.ReadReq.missLatency::cpu.data   4657969000                       # number of ReadReq miss ticks (Tick)
system.cpu.dcache.ReadReq.missLatency::total   4657969000                       # number of ReadReq miss ticks (Tick)
system.cpu.dcache.ReadReq.accesses::cpu.data       577882                       # number of ReadReq accesses(hits+misses) (Count)
system.cpu.dcache.ReadReq.accesses::total       577882                       # number of ReadReq accesses(hits+misses) (Count)
system.cpu.dcache.ReadReq.missRate::cpu.data     0.150141                       # miss rate for ReadReq accesses (Ratio)
system.cpu.dcache.ReadReq.missRate::total     0.150141                       # miss rate for ReadReq accesses (Ratio)
system.cpu.dcache.ReadReq.avgMissLatency::cpu.data 53685.503204                       # average ReadReq miss latency ((Tick/Count))
system.cpu.dcache.ReadReq.avgMissLatency::total 53685.503204                       # average ReadReq miss latency ((Tick/Count))
system.cpu.dcache.ReadReq.mshrHits::cpu.data        47491                       # number of ReadReq MSHR hits (Count)
system.cpu.dcache.ReadReq.mshrHits::total        47491                       # number of ReadReq MSHR hits (Count)
system.cpu.dcache.ReadReq.mshrMisses::cpu.data        39273                       # number of ReadReq MSHR misses (Count)
system.cpu.dcache.ReadReq.mshrMisses::total        39273                       # number of ReadReq MSHR misses (Count)
system.cpu.dcache.ReadReq.mshrMissLatency::cpu.data   1410714500                       # number of ReadReq MSHR miss ticks (Tick)
system.cpu.dcache.ReadReq.mshrMissLatency::total   1410714500                       # number of ReadReq MSHR miss ticks (Tick)
system.cpu.dcache.ReadReq.mshrMissRate::cpu.data     0.067960                       # mshr miss rate for ReadReq accesses (Ratio)
system.cpu.dcache.ReadReq.mshrMissRate::total     0.067960                       # mshr miss rate for ReadReq accesses (Ratio)
system.cpu.dcache.ReadReq.avgMshrMissLatency::cpu.data 35920.721615                       # average ReadReq mshr miss latency ((Tick/Count))
system.cpu.dcache.ReadReq.avgMshrMissLatency::total 35920.721615                       # average ReadReq mshr miss latency ((Tick/Count))
system.cpu.dcache.SwapReq.hits::cpu.data           99                       # number of SwapReq hits (Count)
system.cpu.dcache.SwapReq.hits::total              99                       # number of SwapReq hits (Count)
system.cpu.dcache.SwapReq.misses::cpu.data            5                       # number of SwapReq misses (Count)
system.cpu.dcache.SwapReq.misses::total             5                       # number of SwapReq misses (Count)
system.cpu.dcache.SwapReq.missLatency::cpu.data       313000                       # number of SwapReq miss ticks (Tick)
system.cpu.dcache.SwapReq.missLatency::total       313000                       # number of SwapReq miss ticks (Tick)
system.cpu.dcache.SwapReq.accesses::cpu.data          104                       # number of SwapReq accesses(hits+misses) (Count)
system.cpu.dcache.SwapReq.accesses::total          104                       # number of SwapReq accesses(hits+misses) (Count)
system.cpu.dcache.SwapReq.missRate::cpu.data     0.048077                       # miss rate for SwapReq accesses (Ratio)
system.cpu.dcache.SwapReq.missRate::total     0.048077                       # miss rate for SwapReq accesses (Ratio)
system.cpu.dcache.SwapReq.avgMissLatency::cpu.data        62600                       # average SwapReq miss latency ((Tick/Count))
system.cpu.dcache.SwapReq.avgMissLatency::total        62600                       # average SwapReq miss latency ((Tick/Count))
system.cpu.dcache.SwapReq.mshrMisses::cpu.data            5                       # number of SwapReq MSHR misses (Count)
system.cpu.dcache.SwapReq.mshrMisses::total            5                       # number of SwapReq MSHR misses (Count)
system.cpu.dcache.SwapReq.mshrMissLatency::cpu.data       308000                       # number of SwapReq MSHR miss ticks (Tick)
system.cpu.dcache.SwapReq.mshrMissLatency::total       308000                       # number of SwapReq MSHR miss ticks (Tick)
system.cpu.dcache.SwapReq.mshrMissRate::cpu.data     0.048077                       # mshr miss rate for SwapReq accesses (Ratio)
system.cpu.dcache.SwapReq.mshrMissRate::total     0.048077                       # mshr miss rate for SwapReq accesses (Ratio)
system.cpu.dcache.SwapReq.avgMshrMissLatency::cpu.data        61600                       # average SwapReq mshr miss latency ((Tick/Count))
system.cpu.dcache.SwapReq.avgMshrMissLatency::total        61600                       # average SwapReq mshr miss latency ((Tick/Count))
system.cpu.dcache.WriteLineReq.misses::cpu.data          131                       # number of WriteLineReq misses (Count)
system.cpu.dcache.WriteLineReq.misses::total          131                       # number of WriteLineReq misses (Count)
system.cpu.dcache.WriteLineReq.missLatency::cpu.data      4174908                       # number of WriteLineReq miss ticks (Tick)
system.cpu.dcache.WriteLineReq.missLatency::total      4174908                       # number of WriteLineReq miss ticks (Tick)
system.cpu.dcache.WriteLineReq.accesses::cpu.data          131                       # number of WriteLineReq accesses(hits+misses) (Count)
system.cpu.dcache.WriteLineReq.accesses::total          131                       # number of WriteLineReq accesses(hits+misses) (Count)
system.cpu.dcache.WriteLineReq.missRate::cpu.data            1                       # miss rate for WriteLineReq accesses (Ratio)
system.cpu.dcache.WriteLineReq.missRate::total            1                       # miss rate for WriteLineReq accesses (Ratio)
system.cpu.dcache.WriteLineReq.avgMissLatency::cpu.data 31869.526718                       # average WriteLineReq miss latency ((Tick/Count))
system.cpu.dcache.WriteLineReq.avgMissLatency::total 31869.526718                       # average WriteLineReq miss latency ((Tick/Count))
system.cpu.dcache.WriteLineReq.mshrMisses::cpu.data          131                       # number of WriteLineReq MSHR misses (Count)
system.cpu.dcache.WriteLineReq.mshrMisses::total          131                       # number of WriteLineReq MSHR misses (Count)
system.cpu.dcache.WriteLineReq.mshrMissLatency::cpu.data      4043908                       # number of WriteLineReq MSHR miss ticks (Tick)
system.cpu.dcache.WriteLineReq.mshrMissLatency::total      4043908                       # number of WriteLineReq MSHR miss ticks (Tick)
system.cpu.dcache.WriteLineReq.mshrMissRate::cpu.data            1                       # mshr miss rate for WriteLineReq accesses (Ratio)
system.cpu.dcache.WriteLineReq.mshrMissRate::total            1                       # mshr miss rate for WriteLineReq accesses (Ratio)
system.cpu.dcache.WriteLineReq.avgMshrMissLatency::cpu.data 30869.526718                       # average WriteLineReq mshr miss latency ((Tick/Count))
system.cpu.dcache.WriteLineReq.avgMshrMissLatency::total 30869.526718                       # average WriteLineReq mshr miss latency ((Tick/Count))
system.cpu.dcache.WriteReq.hits::cpu.data       186505                       # number of WriteReq hits (Count)
system.cpu.dcache.WriteReq.hits::total         186505                       # number of WriteReq hits (Count)
system.cpu.dcache.WriteReq.misses::cpu.data         5692                       # number of WriteReq misses (Count)
system.cpu.dcache.WriteReq.misses::total         5692                       # number of WriteReq misses (Count)
system.cpu.dcache.WriteReq.missLatency::cpu.data    347372582                       # number of WriteReq miss ticks (Tick)
system.cpu.dcache.WriteReq.missLatency::total    347372582                       # number of WriteReq miss ticks (Tick)
system.cpu.dcache.WriteReq.accesses::cpu.data       192197                       # number of WriteReq accesses(hits+misses) (Count)
system.cpu.dcache.WriteReq.accesses::total       192197                       # number of WriteReq accesses(hits+misses) (Count)
system.cpu.dcache.WriteReq.missRate::cpu.data     0.029615                       # miss rate for WriteReq accesses (Ratio)
system.cpu.dcache.WriteReq.missRate::total     0.029615                       # miss rate for WriteReq accesses (Ratio)
system.cpu.dcache.WriteReq.avgMissLatency::cpu.data 61028.211876                       # average WriteReq miss latency ((Tick/Count))
system.cpu.dcache.WriteReq.avgMissLatency::total 61028.211876                       # average WriteReq miss latency ((Tick/Count))
system.cpu.dcache.WriteReq.mshrHits::cpu.data         3533                       # number of WriteReq MSHR hits (Count)
system.cpu.dcache.WriteReq.mshrHits::total         3533                       # number of WriteReq MSHR hits (Count)
system.cpu.dcache.WriteReq.mshrMisses::cpu.data         2159                       # number of WriteReq MSHR misses (Count)
system.cpu.dcache.WriteReq.mshrMisses::total         2159                       # number of WriteReq MSHR misses (Count)
system.cpu.dcache.WriteReq.mshrMissLatency::cpu.data    132268293                       # number of WriteReq MSHR miss ticks (Tick)
system.cpu.dcache.WriteReq.mshrMissLatency::total    132268293                       # number of WriteReq MSHR miss ticks (Tick)
system.cpu.dcache.WriteReq.mshrMissRate::cpu.data     0.011233                       # mshr miss rate for WriteReq accesses (Ratio)
system.cpu.dcache.WriteReq.mshrMissRate::total     0.011233                       # mshr miss rate for WriteReq accesses (Ratio)
system.cpu.dcache.WriteReq.avgMshrMissLatency::cpu.data 61263.683650                       # average WriteReq mshr miss latency ((Tick/Count))
system.cpu.dcache.WriteReq.avgMshrMissLatency::total 61263.683650                       # average WriteReq mshr miss latency ((Tick/Count))
system.cpu.dcache.power_state.pwrStateResidencyTicks::UNDEFINED   4219040000                       # Cumulative time (in ticks) in various power states (Tick)
system.cpu.dcache.tags.tagsInUse          1015.112254                       # Average ticks per tags in use ((Tick/Count))
system.cpu.dcache.tags.totalRefs               719290                       # Total number of references to valid blocks. (Count)
system.cpu.dcache.tags.sampledRefs              41568                       # Sample count of references to valid blocks. (Count)
system.cpu.dcache.tags.avgRefs              17.303936                       # Average number of references to valid blocks. ((Count/Count))
system.cpu.dcache.tags.warmupTick              253500                       # The tick when the warmup percentage was hit. (Tick)
system.cpu.dcache.tags.occupancies::cpu.data  1015.112254                       # Average occupied blocks per tick, per requestor ((Count/Tick))
system.cpu.dcache.tags.avgOccs::cpu.data     0.991321                       # Average percentage of cache occupancy ((Ratio/Tick))
system.cpu.dcache.tags.avgOccs::total        0.991321                       # Average percentage of cache occupancy ((Ratio/Tick))
system.cpu.dcache.tags.occupanciesTaskId::1024         1024                       # Occupied blocks per task id (Count)
system.cpu.dcache.tags.ageTaskId_1024::0           87                       # Occupied blocks per task id, per block age (Count)
system.cpu.dcache.tags.ageTaskId_1024::1          748                       # Occupied blocks per task id, per block age (Count)
system.cpu.dcache.tags.ageTaskId_1024::2          187                       # Occupied blocks per task id, per block age (Count)
system.cpu.dcache.tags.ageTaskId_1024::3            2                       # Occupied blocks per task id, per block age (Count)
system.cpu.dcache.tags.ratioOccsTaskId::1024            1                       # Ratio of occupied blocks and all blocks, per task id (Ratio)
system.cpu.dcache.tags.tagAccesses            3122824                       # Number of tag accesses (Count)
system.cpu.dcache.tags.dataAccesses           3122824                       # Number of data accesses (Count)
system.cpu.dcache.tags.power_state.pwrStateResidencyTicks::UNDEFINED   4219040000                       # Cumulative time (in ticks) in various power states (Tick)
system.cpu.decode.idleCycles                   489900                       # Number of cycles decode is idle (Cycle)
system.cpu.decode.blockedCycles               6620651                       # Number of cycles decode is blocked (Cycle)
system.cpu.decode.runCycles                    427576                       # Number of cycles decode is running (Cycle)
system.cpu.decode.unblockCycles                730144                       # Number of cycles decode is unblocking (Cycle)
system.cpu.decode.squashCycles                  16230                       # Number of cycles decode is squashing (Cycle)
system.cpu.decode.branchResolved              1045371                       # Number of times decode resolved a branch (Count)
system.cpu.decode.branchMispred                   915                       # Number of times decode detected a branch misprediction (Count)
system.cpu.decode.decodedInsts                8360551                       # Number of instructions handled by decode (Count)
system.cpu.decode.squashedInsts                  3138                       # Number of squashed instructions handled by decode (Count)
system.cpu.fetch.icacheStallCycles            1657128                       # Number of cycles fetch is stalled on an Icache miss (Cycle)
system.cpu.fetch.insts                        8052925                       # Number of instructions fetch has processed (Count)
system.cpu.fetch.branches                     1709092                       # Number of branches that fetch encountered (Count)
system.cpu.fetch.predictedBranches            1089246                       # Number of branches that fetch has predicted taken (Count)
system.cpu.fetch.cycles                       6605852                       # Number of cycles fetch has run and was not squashing or blocked (Cycle)
system.cpu.fetch.squashCycles                   34234                       # Number of cycles fetch has spent squashing (Cycle)
system.cpu.fetch.miscStallCycles                  570                       # Number of cycles fetch has spent waiting on interrupts, or bad addresses, or out of MSHRs (Cycle)
system.cpu.fetch.pendingTrapStallCycles          3780                       # Number of stall cycles due to pending traps (Cycle)
system.cpu.fetch.icacheWaitRetryStallCycles           54                       # Number of stall cycles due to full MSHR (Cycle)
system.cpu.fetch.cacheLines                   1604503                       # Number of cache lines fetched (Count)
system.cpu.fetch.icacheSquashes                  5043                       # Number of outstanding Icache misses that were squashed (Count)
system.cpu.fetch.nisnDist::samples            8284501                       # Number of instructions fetched each cycle (Total) (Count)
system.cpu.fetch.nisnDist::mean              1.035592                       # Number of instructions fetched each cycle (Total) (Count)
system.cpu.fetch.nisnDist::stdev             2.154024                       # Number of instructions fetched each cycle (Total) (Count)
system.cpu.fetch.nisnDist::underflows               0      0.00%      0.00% # Number of instructions fetched each cycle (Total) (Count)
system.cpu.fetch.nisnDist::0                  5955805     71.89%     71.89% # Number of instructions fetched each cycle (Total) (Count)
system.cpu.fetch.nisnDist::1                   627307      7.57%     79.46% # Number of instructions fetched each cycle (Total) (Count)
system.cpu.fetch.nisnDist::2                   583971      7.05%     86.51% # Number of instructions fetched each cycle (Total) (Count)
system.cpu.fetch.nisnDist::3                   108545      1.31%     87.82% # Number of instructions fetched each cycle (Total) (Count)
system.cpu.fetch.nisnDist::4                   102575      1.24%     89.06% # Number of instructions fetched each cycle (Total) (Count)
system.cpu.fetch.nisnDist::5                   209530      2.53%     91.59% # Number of instructions fetched each cycle (Total) (Count)
system.cpu.fetch.nisnDist::6                   257391      3.11%     94.70% # Number of instructions fetched each cycle (Total) (Count)
system.cpu.fetch.nisnDist::7                    58830      0.71%     95.41% # Number of instructions fetched each cycle (Total) (Count)
system.cpu.fetch.nisnDist::8                   380547      4.59%    100.00% # Number of instructions fetched each cycle (Total) (Count)
system.cpu.fetch.nisnDist::overflows                0      0.00%    100.00% # Number of instructions fetched each cycle (Total) (Count)
system.cpu.fetch.nisnDist::min_value                0                       # Number of instructions fetched each cycle (Total) (Count)
system.cpu.fetch.nisnDist::max_value                8                       # Number of instructions fetched each cycle (Total) (Count)
system.cpu.fetch.nisnDist::total              8284501                       # Number of instructions fetched each cycle (Total) (Count)
system.cpu.fetch.branchRate                  0.202545                       # Number of branch fetches per cycle (Ratio)
system.cpu.fetch.rate                        0.954355                       # Number of inst fetches per cycle ((Count/Cycle))
system.cpu.icache.demandHits::cpu.inst        1601542                       # number of demand (read+write) hits (Count)
system.cpu.icache.demandHits::total           1601542                       # number of demand (read+write) hits (Count)
system.cpu.icache.overallHits::cpu.inst       1601542                       # number of overall hits (Count)
system.cpu.icache.overallHits::total          1601542                       # number of overall hits (Count)
system.cpu.icache.demandMisses::cpu.inst         2961                       # number of demand (read+write) misses (Count)
system.cpu.icache.demandMisses::total            2961                       # number of demand (read+write) misses (Count)
system.cpu.icache.overallMisses::cpu.inst         2961                       # number of overall misses (Count)
system.cpu.icache.overallMisses::total           2961                       # number of overall misses (Count)
system.cpu.icache.demandMissLatency::cpu.inst    195374998                       # number of demand (read+write) miss ticks (Tick)
system.cpu.icache.demandMissLatency::total    195374998                       # number of demand (read+write) miss ticks (Tick)
system.cpu.icache.overallMissLatency::cpu.inst    195374998                       # number of overall miss ticks (Tick)
system.cpu.icache.overallMissLatency::total    195374998                       # number of overall miss ticks (Tick)
system.cpu.icache.demandAccesses::cpu.inst      1604503                       # number of demand (read+write) accesses (Count)
system.cpu.icache.demandAccesses::total       1604503                       # number of demand (read+write) accesses (Count)
system.cpu.icache.overallAccesses::cpu.inst      1604503                       # number of overall (read+write) accesses (Count)
system.cpu.icache.overallAccesses::total      1604503                       # number of overall (read+write) accesses (Count)
system.cpu.icache.demandMissRate::cpu.inst     0.001845                       # miss rate for demand accesses (Ratio)
system.cpu.icache.demandMissRate::total      0.001845                       # miss rate for demand accesses (Ratio)
system.cpu.icache.overallMissRate::cpu.inst     0.001845                       # miss rate for overall accesses (Ratio)
system.cpu.icache.overallMissRate::total     0.001845                       # miss rate for overall accesses (Ratio)
system.cpu.icache.demandAvgMissLatency::cpu.inst 65982.775414                       # average overall miss latency in ticks ((Tick/Count))
system.cpu.icache.demandAvgMissLatency::total 65982.775414                       # average overall miss latency in ticks ((Tick/Count))
system.cpu.icache.overallAvgMissLatency::cpu.inst 65982.775414                       # average overall miss latency ((Tick/Count))
system.cpu.icache.overallAvgMissLatency::total 65982.775414                       # average overall miss latency ((Tick/Count))
system.cpu.icache.blockedCycles::no_mshrs          976                       # number of cycles access was blocked (Cycle)
system.cpu.icache.blockedCycles::no_targets            0                       # number of cycles access was blocked (Cycle)
system.cpu.icache.blockedCauses::no_mshrs           20                       # number of times access was blocked (Count)
system.cpu.icache.blockedCauses::no_targets            0                       # number of times access was blocked (Count)
system.cpu.icache.avgBlocked::no_mshrs      48.800000                       # average number of cycles each access was blocked ((Cycle/Count))
system.cpu.icache.avgBlocked::no_targets          nan                       # average number of cycles each access was blocked ((Cycle/Count))
system.cpu.icache.writebacks::writebacks         2059                       # number of writebacks (Count)
system.cpu.icache.writebacks::total              2059                       # number of writebacks (Count)
system.cpu.icache.demandMshrHits::cpu.inst          645                       # number of demand (read+write) MSHR hits (Count)
system.cpu.icache.demandMshrHits::total           645                       # number of demand (read+write) MSHR hits (Count)
system.cpu.icache.overallMshrHits::cpu.inst          645                       # number of overall MSHR hits (Count)
system.cpu.icache.overallMshrHits::total          645                       # number of overall MSHR hits (Count)
system.cpu.icache.demandMshrMisses::cpu.inst         2316                       # number of demand (read+write) MSHR misses (Count)
system.cpu.icache.demandMshrMisses::total         2316                       # number of demand (read+write) MSHR misses (Count)
system.cpu.icache.overallMshrMisses::cpu.inst         2316                       # number of overall MSHR misses (Count)
system.cpu.icache.overallMshrMisses::total         2316                       # number of overall MSHR misses (Count)
system.cpu.icache.demandMshrMissLatency::cpu.inst    154076000                       # number of demand (read+write) MSHR miss ticks (Tick)
system.cpu.icache.demandMshrMissLatency::total    154076000                       # number of demand (read+write) MSHR miss ticks (Tick)
system.cpu.icache.overallMshrMissLatency::cpu.inst    154076000                       # number of overall MSHR miss ticks (Tick)
system.cpu.icache.overallMshrMissLatency::total    154076000                       # number of overall MSHR miss ticks (Tick)
system.cpu.icache.demandMshrMissRate::cpu.inst     0.001443                       # mshr miss ratio for demand accesses (Ratio)
system.cpu.icache.demandMshrMissRate::total     0.001443                       # mshr miss ratio for demand accesses (Ratio)
system.cpu.icache.overallMshrMissRate::cpu.inst     0.001443                       # mshr miss ratio for overall accesses (Ratio)
system.cpu.icache.overallMshrMissRate::total     0.001443                       # mshr miss ratio for overall accesses (Ratio)
system.cpu.icache.demandAvgMshrMissLatency::cpu.inst 66526.770294                       # average overall mshr miss latency ((Tick/Count))
system.cpu.icache.demandAvgMshrMissLatency::total 66526.770294                       # average overall mshr miss latency ((Tick/Count))
system.cpu.icache.overallAvgMshrMissLatency::cpu.inst 66526.770294                       # average overall mshr miss latency ((Tick/Count))
system.cpu.icache.overallAvgMshrMissLatency::total 66526.770294                       # average overall mshr miss latency ((Tick/Count))
system.cpu.icache.replacements                   2059                       # number of replacements (Count)
system.cpu.icache.ReadReq.hits::cpu.inst      1601542                       # number of ReadReq hits (Count)
system.cpu.icache.ReadReq.hits::total         1601542                       # number of ReadReq hits (Count)
system.cpu.icache.ReadReq.misses::cpu.inst         2961                       # number of ReadReq misses (Count)
system.cpu.icache.ReadReq.misses::total          2961                       # number of ReadReq misses (Count)
system.cpu.icache.ReadReq.missLatency::cpu.inst    195374998                       # number of ReadReq miss ticks (Tick)
system.cpu.icache.ReadReq.missLatency::total    195374998                       # number of ReadReq miss ticks (Tick)
system.cpu.icache.ReadReq.accesses::cpu.inst      1604503                       # number of ReadReq accesses(hits+misses) (Count)
system.cpu.icache.ReadReq.accesses::total      1604503                       # number of ReadReq accesses(hits+misses) (Count)
system.cpu.icache.ReadReq.missRate::cpu.inst     0.001845                       # miss rate for ReadReq accesses (Ratio)
system.cpu.icache.ReadReq.missRate::total     0.001845                       # miss rate for ReadReq accesses (Ratio)
system.cpu.icache.ReadReq.avgMissLatency::cpu.inst 65982.775414                       # average ReadReq miss latency ((Tick/Count))
system.cpu.icache.ReadReq.avgMissLatency::total 65982.775414                       # average ReadReq miss latency ((Tick/Count))
system.cpu.icache.ReadReq.mshrHits::cpu.inst          645                       # number of ReadReq MSHR hits (Count)
system.cpu.icache.ReadReq.mshrHits::total          645                       # number of ReadReq MSHR hits (Count)
system.cpu.icache.ReadReq.mshrMisses::cpu.inst         2316                       # number of ReadReq MSHR misses (Count)
system.cpu.icache.ReadReq.mshrMisses::total         2316                       # number of ReadReq MSHR misses (Count)
system.cpu.icache.ReadReq.mshrMissLatency::cpu.inst    154076000                       # number of ReadReq MSHR miss ticks (Tick)
system.cpu.icache.ReadReq.mshrMissLatency::total    154076000                       # number of ReadReq MSHR miss ticks (Tick)
system.cpu.icache.ReadReq.mshrMissRate::cpu.inst     0.001443                       # mshr miss rate for ReadReq accesses (Ratio)
system.cpu.icache.ReadReq.mshrMissRate::total     0.001443                       # mshr miss rate for ReadReq accesses (Ratio)
system.cpu.icache.ReadReq.avgMshrMissLatency::cpu.inst 66526.770294                       # average ReadReq mshr miss latency ((Tick/Count))
system.cpu.icache.ReadReq.avgMshrMissLatency::total 66526.770294                       # average ReadReq mshr miss latency ((Tick/Count))
system.cpu.icache.power_state.pwrStateResidencyTicks::UNDEFINED   4219040000                       # Cumulative time (in ticks) in various power states (Tick)
system.cpu.icache.tags.tagsInUse           255.064250                       # Average ticks per tags in use ((Tick/Count))
system.cpu.icache.tags.totalRefs              1603857                       # Total number of references to valid blocks. (Count)
system.cpu.icache.tags.sampledRefs               2315                       # Sample count of references to valid blocks. (Count)
system.cpu.icache.tags.avgRefs             692.810799                       # Average number of references to valid blocks. ((Count/Count))
system.cpu.icache.tags.warmupTick               87500                       # The tick when the warmup percentage was hit. (Tick)
system.cpu.icache.tags.occupancies::cpu.inst   255.064250                       # Average occupied blocks per tick, per requestor ((Count/Tick))
system.cpu.icache.tags.avgOccs::cpu.inst     0.996345                       # Average percentage of cache occupancy ((Ratio/Tick))
system.cpu.icache.tags.avgOccs::total        0.996345                       # Average percentage of cache occupancy ((Ratio/Tick))
system.cpu.icache.tags.occupanciesTaskId::1024          256                       # Occupied blocks per task id (Count)
system.cpu.icache.tags.ageTaskId_1024::0           83                       # Occupied blocks per task id, per block age (Count)
system.cpu.icache.tags.ageTaskId_1024::1          137                       # Occupied blocks per task id, per block age (Count)
system.cpu.icache.tags.ageTaskId_1024::3           36                       # Occupied blocks per task id, per block age (Count)
system.cpu.icache.tags.ratioOccsTaskId::1024            1                       # Ratio of occupied blocks and all blocks, per task id (Ratio)
system.cpu.icache.tags.tagAccesses            6420327                       # Number of tag accesses (Count)
system.cpu.icache.tags.dataAccesses           6420327                       # Number of data accesses (Count)
system.cpu.icache.tags.power_state.pwrStateResidencyTicks::UNDEFINED   4219040000                       # Cumulative time (in ticks) in various power states (Tick)
system.cpu.iew.idleCycles                           0                       # Number of cycles IEW is idle (Cycle)
system.cpu.iew.squashCycles                     16230                       # Number of cycles IEW is squashing (Cycle)
system.cpu.iew.blockCycles                     921101                       # Number of cycles IEW is blocking (Cycle)
system.cpu.iew.unblockCycles                   103710                       # Number of cycles IEW is unblocking (Cycle)
system.cpu.iew.dispatchedInsts                8220048                       # Number of instructions dispatched to IQ (Count)
system.cpu.iew.dispSquashedInsts                 2451                       # Number of squashed instructions skipped by dispatch (Count)
system.cpu.iew.dispLoadInsts                   637015                       # Number of dispatched load instructions (Count)
system.cpu.iew.dispStoreInsts                  229621                       # Number of dispatched store instructions (Count)
system.cpu.iew.dispNonSpecInsts                   413                       # Number of dispatched non-speculative instructions (Count)
system.cpu.iew.iqFullEvents                     56445                       # Number of times the IQ has become full, causing a stall (Count)
system.cpu.iew.lsqFullEvents                    26000                       # Number of times the LSQ has become full, causing a stall (Count)
system.cpu.iew.memOrderViolationEvents             73                       # Number of memory order violations (Count)
system.cpu.iew.predictedTakenIncorrect           8344                       # Number of branches that were predicted taken incorrectly (Count)
system.cpu.iew.predictedNotTakenIncorrect         9915                       # Number of branches that were predicted not taken incorrectly (Count)
system.cpu.iew.branchMispredicts                18259                       # Number of branch mispredicts detected at execute (Count)
system.cpu.iew.instsToCommit                  7925959                       # Cumulative count of insts sent to commit (Count)
system.cpu.iew.writebackCount                 7916011                       # Cumulative count of insts written-back (Count)
system.cpu.iew.producerInst                   3821266                       # Number of instructions producing a value (Count)
system.cpu.iew.consumerInst                   6657974                       # Number of instructions consuming a value (Count)
system.cpu.iew.wbRate                        0.938129                       # Insts written-back per cycle ((Count/Cycle))
system.cpu.iew.wbFanout                      0.573938                       # Average fanout of values written-back ((Count/Count))
system.cpu.lsq0.forwLoads                       24424                       # Number of loads that had data forwarded from stores (Count)
system.cpu.lsq0.squashedLoads                  108287                       # Number of loads squashed (Count)
system.cpu.lsq0.ignoredResponses                   41                       # Number of memory responses ignored because the instruction is squashed (Count)
system.cpu.lsq0.memOrderViolation                  73                       # Number of memory ordering violations (Count)
system.cpu.lsq0.squashedStores                  37203                       # Number of stores squashed (Count)
system.cpu.lsq0.rescheduledLoads                 9290                       # Number of loads that were rescheduled (Count)
system.cpu.lsq0.blockedByCache                   1986                       # Number of times an access to memory failed due to the cache being blocked (Count)
system.cpu.lsq0.loadToUse::samples             528728                       # Distribution of cycle latency between the first time a load is issued and its completion (Unspecified)
system.cpu.lsq0.loadToUse::mean             19.572402                       # Distribution of cycle latency between the first time a load is issued and its completion (Unspecified)
system.cpu.lsq0.loadToUse::stdev            56.036086                       # Distribution of cycle latency between the first time a load is issued and its completion (Unspecified)
system.cpu.lsq0.loadToUse::0-9                 450204     85.15%     85.15% # Distribution of cycle latency between the first time a load is issued and its completion (Unspecified)
system.cpu.lsq0.loadToUse::10-19                 2871      0.54%     85.69% # Distribution of cycle latency between the first time a load is issued and its completion (Unspecified)
system.cpu.lsq0.loadToUse::20-29                29043      5.49%     91.18% # Distribution of cycle latency between the first time a load is issued and its completion (Unspecified)
system.cpu.lsq0.loadToUse::30-39                 1166      0.22%     91.41% # Distribution of cycle latency between the first time a load is issued and its completion (Unspecified)
system.cpu.lsq0.loadToUse::40-49                  839      0.16%     91.56% # Distribution of cycle latency between the first time a load is issued and its completion (Unspecified)
[...]
system.mem_ctrls.dram.perBankWrBursts::10          107                       # Per bank write bursts (Count)
system.mem_ctrls.dram.perBankWrBursts::11           57                       # Per bank write bursts (Count)
system.mem_ctrls.dram.perBankWrBursts::12          112                       # Per bank write bursts (Count)
system.mem_ctrls.dram.perBankWrBursts::13          164                       # Per bank write bursts (Count)
system.mem_ctrls.dram.perBankWrBursts::14           76                       # Per bank write bursts (Count)
system.mem_ctrls.dram.perBankWrBursts::15          203                       # Per bank write bursts (Count)
system.mem_ctrls.dram.totQLat               187708500                       # Total ticks spent queuing (Tick)
system.mem_ctrls.dram.totBusLat              82725000                       # Total ticks spent in databus transfers (Tick)
system.mem_ctrls.dram.totMemAccLat          497927250                       # Total ticks spent from burst creation until serviced by the DRAM (Tick)
system.mem_ctrls.dram.avgQLat                11345.33                       # Average queueing delay per DRAM burst ((Tick/Count))
system.mem_ctrls.dram.avgBusLat               5000.00                       # Average bus latency per DRAM burst ((Tick/Count))
system.mem_ctrls.dram.avgMemAccLat           30095.33                       # Average memory access latency per DRAM burst ((Tick/Count))
system.mem_ctrls.dram.readRowHits               12120                       # Number of row buffer hits during reads (Count)
system.mem_ctrls.dram.writeRowHits               1380                       # Number of row buffer hits during writes (Count)
system.mem_ctrls.dram.readRowHitRate            73.25                       # Row buffer hit rate for reads (Ratio)
system.mem_ctrls.dram.writeRowHitRate           75.66                       # Row buffer hit rate for writes (Ratio)
system.mem_ctrls.dram.bytesPerActivate::samples         4856                       # Bytes accessed per row activation (Byte)
system.mem_ctrls.dram.bytesPerActivate::mean   241.449753                       # Bytes accessed per row activation (Byte)
system.mem_ctrls.dram.bytesPerActivate::gmean   145.169367                       # Bytes accessed per row activation (Byte)
system.mem_ctrls.dram.bytesPerActivate::stdev   287.653036                       # Bytes accessed per row activation (Byte)
system.mem_ctrls.dram.bytesPerActivate::0-127         2151     44.30%     44.30% # Bytes accessed per row activation (Byte)
system.mem_ctrls.dram.bytesPerActivate::128-255         1365     28.11%     72.41% # Bytes accessed per row activation (Byte)
system.mem_ctrls.dram.bytesPerActivate::256-383          410      8.44%     80.85% # Bytes accessed per row activation (Byte)
system.mem_ctrls.dram.bytesPerActivate::384-511          179      3.69%     84.53% # Bytes accessed per row activation (Byte)
system.mem_ctrls.dram.bytesPerActivate::512-639          132      2.72%     87.25% # Bytes accessed per row activation (Byte)
system.mem_ctrls.dram.bytesPerActivate::640-767           88      1.81%     89.07% # Bytes accessed per row activation (Byte)
system.mem_ctrls.dram.bytesPerActivate::768-895          113      2.33%     91.39% # Bytes accessed per row activation (Byte)
system.mem_ctrls.dram.bytesPerActivate::896-1023           36      0.74%     92.13% # Bytes accessed per row activation (Byte)
system.mem_ctrls.dram.bytesPerActivate::1024-1151          382      7.87%    100.00% # Bytes accessed per row activation (Byte)
system.mem_ctrls.dram.bytesPerActivate::total         4856                       # Bytes accessed per row activation (Byte)
system.mem_ctrls.dram.bytesRead               1058880                       # Total bytes read (Byte)
system.mem_ctrls.dram.bytesWritten             116736                       # Total bytes written (Byte)
system.mem_ctrls.dram.avgRdBW              250.976525                       # Average DRAM read bandwidth in MiBytes/s ((Byte/Second))
system.mem_ctrls.dram.avgWrBW               27.668854                       # Average DRAM write bandwidth in MiBytes/s ((Byte/Second))
system.mem_ctrls.dram.peakBW                 12800.00                       # Theoretical peak bandwidth in MiByte/s ((Byte/Second))
system.mem_ctrls.dram.busUtil                    2.18                       # Data bus utilization in percentage (Ratio)
system.mem_ctrls.dram.busUtilRead                1.96                       # Data bus utilization in percentage for reads (Ratio)
system.mem_ctrls.dram.busUtilWrite               0.22                       # Data bus utilization in percentage for writes (Ratio)
system.mem_ctrls.dram.pageHitRate               73.49                       # Row buffer hit rate, read and write combined (Ratio)
system.mem_ctrls.dram.power_state.pwrStateResidencyTicks::UNDEFINED   4219040000                       # Cumulative time (in ticks) in various power states (Tick)
system.mem_ctrls.dram.rank0.actEnergy        17871420                       # Energy for activate commands per rank (pJ) (Joule)
system.mem_ctrls.dram.rank0.preEnergy         9472320                       # Energy for precharge commands per rank (pJ) (Joule)
system.mem_ctrls.dram.rank0.readEnergy       58112460                       # Energy for read commands per rank (pJ) (Joule)
system.mem_ctrls.dram.rank0.writeEnergy       5131260                       # Energy for write commands per rank (pJ) (Joule)
system.mem_ctrls.dram.rank0.refreshEnergy 332520240.000000                       # Energy for refresh commands per rank (pJ) (Joule)
system.mem_ctrls.dram.rank0.actBackEnergy    597294450                       # Energy for active background per rank (pJ) (Joule)
system.mem_ctrls.dram.rank0.preBackEnergy   1117126560                       # Energy for precharge background per rank (pJ) (Joule)
system.mem_ctrls.dram.rank0.actPowerDownEnergy            0                       # Energy for active power-down per rank (pJ) (Joule)
system.mem_ctrls.dram.rank0.prePowerDownEnergy            0                       # Energy for precharge power-down per rank (pJ) (Joule)
system.mem_ctrls.dram.rank0.selfRefreshEnergy            0                       # Energy for self refresh per rank (pJ) (Joule)
system.mem_ctrls.dram.rank0.totalEnergy    2137528710                       # Total energy per rank (pJ) (Joule)
system.mem_ctrls.dram.rank0.averagePower   506.638645                       # Core power per rank (mW) (Watt)
system.mem_ctrls.dram.rank0.totalIdleTime            0                       # Total Idle time Per DRAM Rank (Tick)
system.mem_ctrls.dram.rank0.pwrStateTime::IDLE   2898147500                       # Time in different power states (Tick)
system.mem_ctrls.dram.rank0.pwrStateTime::REF    140660000                       # Time in different power states (Tick)
system.mem_ctrls.dram.rank0.pwrStateTime::SREF            0                       # Time in different power states (Tick)
system.mem_ctrls.dram.rank0.pwrStateTime::PRE_PDN            0                       # Time in different power states (Tick)
system.mem_ctrls.dram.rank0.pwrStateTime::ACT   1180232500                       # Time in different power states (Tick)
system.mem_ctrls.dram.rank0.pwrStateTime::ACT_PDN            0                       # Time in different power states (Tick)
system.mem_ctrls.dram.rank1.actEnergy        16893240                       # Energy for activate commands per rank (pJ) (Joule)
system.mem_ctrls.dram.rank1.preEnergy         8956200                       # Energy for precharge commands per rank (pJ) (Joule)
system.mem_ctrls.dram.rank1.readEnergy       60018840                       # Energy for read commands per rank (pJ) (Joule)
system.mem_ctrls.dram.rank1.writeEnergy       4390020                       # Energy for write commands per rank (pJ) (Joule)
system.mem_ctrls.dram.rank1.refreshEnergy 332520240.000000                       # Energy for refresh commands per rank (pJ) (Joule)
system.mem_ctrls.dram.rank1.actBackEnergy    641154240                       # Energy for active background per rank (pJ) (Joule)
system.mem_ctrls.dram.rank1.preBackEnergy   1080192000                       # Energy for precharge background per rank (pJ) (Joule)
system.mem_ctrls.dram.rank1.actPowerDownEnergy            0                       # Energy for active power-down per rank (pJ) (Joule)
system.mem_ctrls.dram.rank1.prePowerDownEnergy            0                       # Energy for precharge power-down per rank (pJ) (Joule)
system.mem_ctrls.dram.rank1.selfRefreshEnergy            0                       # Energy for self refresh per rank (pJ) (Joule)
system.mem_ctrls.dram.rank1.totalEnergy    2144124780                       # Total energy per rank (pJ) (Joule)
system.mem_ctrls.dram.rank1.averagePower   508.202051                       # Core power per rank (mW) (Watt)
system.mem_ctrls.dram.rank1.totalIdleTime            0                       # Total Idle time Per DRAM Rank (Tick)
system.mem_ctrls.dram.rank1.pwrStateTime::IDLE   2801642250                       # Time in different power states (Tick)
system.mem_ctrls.dram.rank1.pwrStateTime::REF    140660000                       # Time in different power states (Tick)
system.mem_ctrls.dram.rank1.pwrStateTime::SREF            0                       # Time in different power states (Tick)
system.mem_ctrls.dram.rank1.pwrStateTime::PRE_PDN            0                       # Time in different power states (Tick)
system.mem_ctrls.dram.rank1.pwrStateTime::ACT   1276737750                       # Time in different power states (Tick)
system.mem_ctrls.dram.rank1.pwrStateTime::ACT_PDN            0                       # Time in different power states (Tick)
system.mem_ctrls.power_state.pwrStateResidencyTicks::UNDEFINED   4219040000                       # Cumulative time (in ticks) in various power states (Tick)
system.membus.transDist::ReadResp               15066                       # Transaction distribution (Count)
system.membus.transDist::WritebackDirty          1842                       # Transaction distribution (Count)
system.membus.transDist::CleanEvict             10727                       # Transaction distribution (Count)
system.membus.transDist::ReadExReq               1502                       # Transaction distribution (Count)
system.membus.transDist::ReadExResp              1502                       # Transaction distribution (Count)
system.membus.transDist::ReadSharedReq          15066                       # Transaction distribution (Count)
system.membus.transDist::InvalidateReq            138                       # Transaction distribution (Count)
system.membus.pktCount_system.l2.mem_side_port::system.mem_ctrls.port        45843                       # Packet count per connected requestor and responder (Count)
system.membus.pktCount::total                   45843                       # Packet count per connected requestor and responder (Count)
system.membus.pktSize_system.l2.mem_side_port::system.mem_ctrls.port      1178240                       # Cumulative packet size per connected requestor and responder (Byte)
system.membus.pktSize::total                  1178240                       # Cumulative packet size per connected requestor and responder (Byte)
system.membus.snoops                                0                       # Total snoops (Count)
system.membus.snoopTraffic                          0                       # Total snoop traffic (Byte)
system.membus.snoopFanout::samples              16706                       # Request fanout histogram (Count)
system.membus.snoopFanout::mean                     0                       # Request fanout histogram (Count)
system.membus.snoopFanout::stdev                    0                       # Request fanout histogram (Count)
system.membus.snoopFanout::underflows               0      0.00%      0.00% # Request fanout histogram (Count)
system.membus.snoopFanout::0                    16706    100.00%    100.00% # Request fanout histogram (Count)
system.membus.snoopFanout::1                        0      0.00%    100.00% # Request fanout histogram (Count)
system.membus.snoopFanout::overflows                0      0.00%    100.00% # Request fanout histogram (Count)
system.membus.snoopFanout::min_value                0                       # Request fanout histogram (Count)
system.membus.snoopFanout::max_value                0                       # Request fanout histogram (Count)
system.membus.snoopFanout::total                16706                       # Request fanout histogram (Count)
system.membus.power_state.pwrStateResidencyTicks::UNDEFINED   4219040000                       # Cumulative time (in ticks) in various power states (Tick)
system.membus.reqLayer0.occupancy            40760000                       # Layer occupancy (ticks) (Tick)
system.membus.reqLayer0.utilization               0.0                       # Layer utilization (Ratio)
system.membus.respLayer1.occupancy           88293250                       # Layer occupancy (ticks) (Tick)
system.membus.respLayer1.utilization              0.0                       # Layer utilization (Ratio)
system.membus.snoop_filter.totRequests          29275                       # Total number of requests made to the snoop filter. (Count)
system.membus.snoop_filter.hitSingleRequests        12571                       # Number of requests hitting in the snoop filter with a single holder of the requested data. (Count)
system.membus.snoop_filter.hitMultiRequests            0                       # Number of requests hitting in the snoop filter with multiple (>1) holders of the requested data. (Count)
system.membus.snoop_filter.totSnoops                0                       # Total number of snoops made to the snoop filter. (Count)
system.membus.snoop_filter.hitSingleSnoops            0                       # Number of snoops hitting in the snoop filter with a single holder of the requested data. (Count)
system.membus.snoop_filter.hitMultiSnoops            0                       # Number of snoops hitting in the snoop filter with multiple (>1) holders of the requested data. (Count)
system.tol2bus.transDist::ReadResp              41588                       # Transaction distribution (Count)
system.tol2bus.transDist::WritebackDirty         5027                       # Transaction distribution (Count)
system.tol2bus.transDist::WritebackClean         2059                       # Transaction distribution (Count)
system.tol2bus.transDist::CleanEvict            48700                       # Transaction distribution (Count)
system.tol2bus.transDist::ReadExReq              2156                       # Transaction distribution (Count)
system.tol2bus.transDist::ReadExResp             2156                       # Transaction distribution (Count)
system.tol2bus.transDist::ReadCleanReq           2316                       # Transaction distribution (Count)
system.tol2bus.transDist::ReadSharedReq         39273                       # Transaction distribution (Count)
system.tol2bus.transDist::InvalidateReq           139                       # Transaction distribution (Count)
system.tol2bus.transDist::InvalidateResp          139                       # Transaction distribution (Count)
system.tol2bus.pktCount_system.cpu.icache.mem_side_port::system.l2.cpu_side_port         6690                       # Packet count per connected requestor and responder (Count)
system.tol2bus.pktCount_system.cpu.dcache.mem_side_port::system.l2.cpu_side_port       123680                       # Packet count per connected requestor and responder (Count)
system.tol2bus.pktCount::total                 130370                       # Packet count per connected requestor and responder (Count)
system.tol2bus.pktSize_system.cpu.icache.mem_side_port::system.l2.cpu_side_port       279936                       # Cumulative packet size per connected requestor and responder (Byte)
system.tol2bus.pktSize_system.cpu.dcache.mem_side_port::system.l2.cpu_side_port      2855296                       # Cumulative packet size per connected requestor and responder (Byte)
system.tol2bus.pktSize::total                 3135232                       # Cumulative packet size per connected requestor and responder (Byte)
system.tol2bus.snoops                           13183                       # Total snoops (Count)
system.tol2bus.snoopTraffic                    117888                       # Total snoop traffic (Byte)
system.tol2bus.snoopFanout::samples             57067                       # Request fanout histogram (Count)
system.tol2bus.snoopFanout::mean             0.013756                       # Request fanout histogram (Count)
system.tol2bus.snoopFanout::stdev            0.116477                       # Request fanout histogram (Count)
system.tol2bus.snoopFanout::underflows              0      0.00%      0.00% # Request fanout histogram (Count)
system.tol2bus.snoopFanout::0                   56282     98.62%     98.62% # Request fanout histogram (Count)
system.tol2bus.snoopFanout::1                     785      1.38%    100.00% # Request fanout histogram (Count)
system.tol2bus.snoopFanout::2                       0      0.00%    100.00% # Request fanout histogram (Count)
system.tol2bus.snoopFanout::overflows               0      0.00%    100.00% # Request fanout histogram (Count)
system.tol2bus.snoopFanout::min_value               0                       # Request fanout histogram (Count)
system.tol2bus.snoopFanout::max_value               1                       # Request fanout histogram (Count)
system.tol2bus.snoopFanout::total               57067                       # Request fanout histogram (Count)
system.tol2bus.power_state.pwrStateResidencyTicks::UNDEFINED   4219040000                       # Cumulative time (in ticks) in various power states (Tick)
system.tol2bus.reqLayer0.occupancy           48487500                       # Layer occupancy (ticks) (Tick)
system.tol2bus.reqLayer0.utilization              0.0                       # Layer utilization (Ratio)
system.tol2bus.respLayer0.occupancy           3472999                       # Layer occupancy (ticks) (Tick)
system.tol2bus.respLayer0.utilization             0.0                       # Layer utilization (Ratio)
system.tol2bus.respLayer1.occupancy          62213000                       # Layer occupancy (ticks) (Tick)
system.tol2bus.respLayer1.utilization             0.0                       # Layer utilization (Ratio)
system.tol2bus.snoop_filter.totRequests         86487                       # Total number of requests made to the snoop filter. (Count)
system.tol2bus.snoop_filter.hitSingleRequests        42605                       # Number of requests hitting in the snoop filter with a single holder of the requested data. (Count)
system.tol2bus.snoop_filter.hitMultiRequests            6                       # Number of requests hitting in the snoop filter with multiple (>1) holders of the requested data. (Count)
system.tol2bus.snoop_filter.totSnoops             777                       # Total number of snoops made to the snoop filter. (Count)
system.tol2bus.snoop_filter.hitSingleSnoops          777                       # Number of snoops hitting in the snoop filter with a single holder of the requested data. (Count)
system.tol2bus.snoop_filter.hitMultiSnoops            0                       # Number of snoops hitting in the snoop filter with multiple (>1) holders of the requested data. (Count)
system.voltage_domain.voltage                       1                       # Voltage in Volts (Volt)
system.workload.inst.arm                            0                       # number of arm instructions executed (Count)
system.workload.inst.quiesce                        0                       # number of quiesce instructions executed (Count)

---------- End Simulation Statistics   ----------
