
---------- Begin Simulation Statistics ----------
simSeconds                                   0.007976                       # Number of seconds simulated (Second)
simTicks                                   7976055000                       # Number of ticks simulated (Tick)
finalTick                                  7976055000                       # Number of ticks from beginning of simulation (restored from checkpoints and never reset) (Tick)
simFreq                                  1000000000000                       # The number of ticks per simulated second ((Tick/Second))
hostSeconds                                    126.23                       # Real time elapsed on the host (Second)
hostTickRate                                 63188453                       # The number of ticks simulated per host second (ticks/s) ((Tick/Second))
hostMemory                                     681140                       # Number of bytes of host memory used (Byte)
simInsts                                     44146509                       # Number of instructions simulated (Count)
simOps                                       50500704                       # Number of ops (including micro ops) simulated (Count)
hostInstRate                                   349740                       # Simulator instruction rate (inst/s) ((Count/Second))
hostOpRate                                     400080                       # Simulator op (including micro ops) rate (op/s) ((Count/Second))
system.clk_domain.clock                          1000                       # Clock period in ticks (Tick)
system.cpu.numCycles                         15952111                       # Number of cpu cycles simulated (Cycle)
system.cpu.numWorkItemsStarted                      0                       # Number of work items this cpu started (Count)
system.cpu.numWorkItemsCompleted                    0                       # Number of work items this cpu completed (Count)
system.cpu.instsAdded                        51160731                       # Number of instructions added to the IQ (excludes non-spec) (Count)
system.cpu.nonSpecInstsAdded                      386                       # Number of non-speculative instructions added to the IQ (Count)
system.cpu.instsIssued                       51036975                       # Number of instructions issued (Count)
system.cpu.squashedInstsIssued                   2526                       # Number of squashed instructions issued (Count)
system.cpu.squashedInstsExamined               660412                       # Number of squashed instructions iterated over during squash; mainly for profiling (Count)
system.cpu.squashedOperandsExamined            525707                       # Number of squashed operands that are examined and possibly removed from graph (Count)
system.cpu.squashedNonSpecRemoved                 126                       # Number of squashed non-spec instructions that were removed (Count)
system.cpu.numIssuedDist::samples            15810420                       # Number of insts issued each cycle (Count)
system.cpu.numIssuedDist::mean               3.228059                       # Number of insts issued each cycle (Count)
system.cpu.numIssuedDist::stdev              2.345781                       # Number of insts issued each cycle (Count)
system.cpu.numIssuedDist::underflows                0      0.00%      0.00% # Number of insts issued each cycle (Count)
system.cpu.numIssuedDist::0                   3538267     22.38%     22.38% # Number of insts issued each cycle (Count)
system.cpu.numIssuedDist::1                    923236      5.84%     28.22% # Number of insts issued each cycle (Count)
system.cpu.numIssuedDist::2                   1524503      9.64%     37.86% # Number of insts issued each cycle (Count)
system.cpu.numIssuedDist::3                   2033480     12.86%     50.72% # Number of insts issued each cycle (Count)
system.cpu.numIssuedDist::4                   2795919     17.68%     68.41% # Number of insts issued each cycle (Count)
system.cpu.numIssuedDist::5                   1952800     12.35%     80.76% # Number of insts issued each cycle (Count)
system.cpu.numIssuedDist::6                   1493839      9.45%     90.21% # Number of insts issued each cycle (Count)
system.cpu.numIssuedDist::7                   1333425      8.43%     98.64% # Number of insts issued each cycle (Count)
system.cpu.numIssuedDist::8                    214951      1.36%    100.00% # Number of insts issued each cycle (Count)
system.cpu.numIssuedDist::overflows                 0      0.00%    100.00% # Number of insts issued each cycle (Count)
system.cpu.numIssuedDist::min_value                 0                       # Number of insts issued each cycle (Count)
system.cpu.numIssuedDist::max_value                 8                       # Number of insts issued each cycle (Count)
system.cpu.numIssuedDist::total              15810420                       # Number of insts issued each cycle (Count)
system.cpu.statFuBusy::No_OpClass                   0      0.00%      0.00% # attempts to use FU when none available (Count)
system.cpu.statFuBusy::IntAlu                   21879     29.13%     29.13% # attempts to use FU when none available (Count)
system.cpu.statFuBusy::IntMult                      0      0.00%     29.13% # attempts to use FU when none available (Count)
system.cpu.statFuBusy::IntDiv                    1224      1.63%     30.75% # attempts to use FU when none available (Count)
system.cpu.statFuBusy::FloatAdd                     0      0.00%     30.75% # attempts to use FU when none available (Count)
system.cpu.statFuBusy::FloatCmp                     0      0.00%     30.75% # attempts to use FU when none available (Count)
system.cpu.statFuBusy::FloatCvt                     0      0.00%     30.75% # attempts to use FU when none available (Count)
system.cpu.statFuBusy::FloatMult                    0      0.00%     30.75% # attempts to use FU when none available (Count)
system.cpu.statFuBusy::FloatMultAcc                 0      0.00%     30.75% # attempts to use FU when none available (Count)
system.cpu.statFuBusy::FloatDiv                     0      0.00%     30.75% # attempts to use FU when none available (Count)
system.cpu.statFuBusy::FloatMisc                    0      0.00%     30.75% # attempts to use FU when none available (Count)
system.cpu.statFuBusy::FloatSqrt                    0      0.00%     30.75% # attempts to use FU when none available (Count)
system.cpu.statFuBusy::SimdAdd                      0      0.00%     30.75% # attempts to use FU when none available (Count)
system.cpu.statFuBusy::SimdAddAcc                   0      0.00%     30.75% # attempts to use FU when none available (Count)
system.cpu.statFuBusy::SimdAlu                     17      0.02%     30.78% # attempts to use FU when none available (Count)
system.cpu.statFuBusy::SimdCmp                     15      0.02%     30.80% # attempts to use FU when none available (Count)
system.cpu.statFuBusy::SimdCvt                      0      0.00%     30.80% # attempts to use FU when none available (Count)
system.cpu.statFuBusy::SimdMisc                     0      0.00%     30.80% # attempts to use FU when none available (Count)
system.cpu.statFuBusy::SimdMult                     0      0.00%     30.80% # attempts to use FU when none available (Count)
system.cpu.statFuBusy::SimdMultAcc                  0      0.00%     30.80% # attempts to use FU when none available (Count)
system.cpu.statFuBusy::SimdShift                    0      0.00%     30.80% # attempts to use FU when none available (Count)
system.cpu.statFuBusy::SimdShiftAcc                 0      0.00%     30.80% # attempts to use FU when none available (Count)
system.cpu.statFuBusy::SimdDiv                      0      0.00%     30.80% # attempts to use FU when none available (Count)
system.cpu.statFuBusy::SimdSqrt                     0      0.00%     30.80% # attempts to use FU when none available (Count)
system.cpu.statFuBusy::SimdFloatAdd                 0      0.00%     30.80% # attempts to use FU when none available (Count)
system.cpu.statFuBusy::SimdFloatAlu                 0      0.00%     30.80% # attempts to use FU when none available (Count)
system.cpu.statFuBusy::SimdFloatCmp                 0      0.00%     30.80% # attempts to use FU when none available (Count)
system.cpu.statFuBusy::SimdFloatCvt                 0      0.00%     30.80% # attempts to use FU when none available (Count)
system.cpu.statFuBusy::SimdFloatDiv                 0      0.00%     30.80% # attempts to use FU when none available (Count)
system.cpu.statFuBusy::SimdFloatMisc                0      0.00%     30.80% # attempts to use FU when none available (Count)
system.cpu.statFuBusy::SimdFloatMult                0      0.00%     30.80% # attempts to use FU when none available (Count)
system.cpu.statFuBusy::SimdFloatMultAcc             0      0.00%     30.80% # attempts to use FU when none available (Count)
system.cpu.statFuBusy::SimdFloatSqrt                0      0.00%     30.80% # attempts to use FU when none available (Count)
system.cpu.statFuBusy::SimdReduceAdd                0      0.00%     30.80% # attempts to use FU when none available (Count)
system.cpu.statFuBusy::SimdReduceAlu                0      0.00%     30.80% # attempts to use FU when none available (Count)
system.cpu.statFuBusy::SimdReduceCmp                0      0.00%     30.80% # attempts to use FU when none available (Count)
system.cpu.statFuBusy::SimdFloatReduceAdd            0      0.00%     30.80% # attempts to use FU when none available (Count)
system.cpu.statFuBusy::SimdFloatReduceCmp            0      0.00%     30.80% # attempts to use FU when none available (Count)
system.cpu.statFuBusy::SimdAes                      0      0.00%     30.80% # attempts to use FU when none available (Count)
system.cpu.statFuBusy::SimdAesMix                   0      0.00%     30.80% # attempts to use FU when none available (Count)
system.cpu.statFuBusy::SimdSha1Hash                 0      0.00%     30.80% # attempts to use FU when none available (Count)
system.cpu.statFuBusy::SimdSha1Hash2                0      0.00%     30.80% # attempts to use FU when none available (Count)
system.cpu.statFuBusy::SimdSha256Hash               0      0.00%     30.80% # attempts to use FU when none available (Count)
system.cpu.statFuBusy::SimdSha256Hash2              0      0.00%     30.80% # attempts to use FU when none available (Count)
system.cpu.statFuBusy::SimdShaSigma2                0      0.00%     30.80% # attempts to use FU when none available (Count)
system.cpu.statFuBusy::SimdShaSigma3                0      0.00%     30.80% # attempts to use FU when none available (Count)
system.cpu.statFuBusy::SimdPredAlu                  0      0.00%     30.80% # attempts to use FU when none available (Count)
system.cpu.statFuBusy::MemRead                  37076     49.36%     80.15% # attempts to use FU when none available (Count)
system.cpu.statFuBusy::MemWrite                 14910     19.85%    100.00% # attempts to use FU when none available (Count)
system.cpu.statFuBusy::FloatMemRead                 0      0.00%    100.00% # attempts to use FU when none available (Count)
system.cpu.statFuBusy::FloatMemWrite                0      0.00%    100.00% # attempts to use FU when none available (Count)
system.cpu.statFuBusy::IprAccess                    0      0.00%    100.00% # attempts to use FU when none available (Count)
system.cpu.statFuBusy::InstPrefetch                 0      0.00%    100.00% # attempts to use FU when none available (Count)
system.cpu.statIssuedInstType_0::No_OpClass      3044961      5.97%      5.97% # Number of instructions issued per FU type, per thread (Count)
system.cpu.statIssuedInstType_0::IntAlu      31792514     62.29%     68.26% # Number of instructions issued per FU type, per thread (Count)
system.cpu.statIssuedInstType_0::IntMult         7636      0.01%     68.27% # Number of instructions issued per FU type, per thread (Count)
system.cpu.statIssuedInstType_0::IntDiv          2705      0.01%     68.28% # Number of instructions issued per FU type, per thread (Count)
system.cpu.statIssuedInstType_0::FloatAdd            0      0.00%     68.28% # Number of instructions issued per FU type, per thread (Count)
system.cpu.statIssuedInstType_0::FloatCmp            0      0.00%     68.28% # Number of instructions issued per FU type, per thread (Count)
system.cpu.statIssuedInstType_0::FloatCvt            0      0.00%     68.28% # Number of instructions issued per FU type, per thread (Count)
system.cpu.statIssuedInstType_0::FloatMult            0      0.00%     68.28% # Number of instructions issued per FU type, per thread (Count)
system.cpu.statIssuedInstType_0::FloatMultAcc            0      0.00%     68.28% # Number of instructions issued per FU type, per thread (Count)
system.cpu.statIssuedInstType_0::FloatDiv            0      0.00%     68.28% # Number of instructions issued per FU type, per thread (Count)
system.cpu.statIssuedInstType_0::FloatMisc            2      0.00%     68.28% # Number of instructions issued per FU type, per thread (Count)
system.cpu.statIssuedInstType_0::FloatSqrt            0      0.00%     68.28% # Number of instructions issued per FU type, per thread (Count)
system.cpu.statIssuedInstType_0::SimdAdd      3043891      5.96%     74.24% # Number of instructions issued per FU type, per thread (Count)
system.cpu.statIssuedInstType_0::SimdAddAcc            0      0.00%     74.24% # Number of instructions issued per FU type, per thread (Count)
system.cpu.statIssuedInstType_0::SimdAlu          204      0.00%     74.24% # Number of instructions issued per FU type, per thread (Count)
system.cpu.statIssuedInstType_0::SimdCmp          117      0.00%     74.24% # Number of instructions issued per FU type, per thread (Count)
system.cpu.statIssuedInstType_0::SimdCvt            0      0.00%     74.24% # Number of instructions issued per FU type, per thread (Count)
system.cpu.statIssuedInstType_0::SimdMisc      3043923      5.96%     80.21% # Number of instructions issued per FU type, per thread (Count)
system.cpu.statIssuedInstType_0::SimdMult      3043804      5.96%     86.17% # Number of instructions issued per FU type, per thread (Count)
system.cpu.statIssuedInstType_0::SimdMultAcc            0      0.00%     86.17% # Number of instructions issued per FU type, per thread (Count)
system.cpu.statIssuedInstType_0::SimdShift            0      0.00%     86.17% # Number of instructions issued per FU type, per thread (Count)
system.cpu.statIssuedInstType_0::SimdShiftAcc            0      0.00%     86.17% # Number of instructions issued per FU type, per thread (Count)
system.cpu.statIssuedInstType_0::SimdDiv            0      0.00%     86.17% # Number of instructions issued per FU type, per thread (Count)
system.cpu.statIssuedInstType_0::SimdSqrt            0      0.00%     86.17% # Number of instructions issued per FU type, per thread (Count)
system.cpu.statIssuedInstType_0::SimdFloatAdd            0      0.00%     86.17% # Number of instructions issued per FU type, per thread (Count)
system.cpu.statIssuedInstType_0::SimdFloatAlu            0      0.00%     86.17% # Number of instructions issued per FU type, per thread (Count)
system.cpu.statIssuedInstType_0::SimdFloatCmp            0      0.00%     86.17% # Number of instructions issued per FU type, per thread (Count)
system.cpu.statIssuedInstType_0::SimdFloatCvt            0      0.00%     86.17% # Number of instructions issued per FU type, per thread (Count)
system.cpu.statIssuedInstType_0::SimdFloatDiv            0      0.00%     86.17% # Number of instructions issued per FU type, per thread (Count)
system.cpu.statIssuedInstType_0::SimdFloatMisc            0      0.00%     86.17% # Number of instructions issued per FU type, per thread (Count)
system.cpu.statIssuedInstType_0::SimdFloatMult            0      0.00%     86.17% # Number of instructions issued per FU type, per thread (Count)
system.cpu.statIssuedInstType_0::SimdFloatMultAcc            0      0.00%     86.17% # Number of instructions issued per FU type, per thread (Count)
system.cpu.statIssuedInstType_0::SimdFloatSqrt            0      0.00%     86.17% # Number of instructions issued per FU type, per thread (Count)
system.cpu.statIssuedInstType_0::SimdReduceAdd            0      0.00%     86.17% # Number of instructions issued per FU type, per thread (Count)
system.cpu.statIssuedInstType_0::SimdReduceAlu            0      0.00%     86.17% # Number of instructions issued per FU type, per thread (Count)
system.cpu.statIssuedInstType_0::SimdReduceCmp            0      0.00%     86.17% # Number of instructions issued per FU type, per thread (Count)
system.cpu.statIssuedInstType_0::SimdFloatReduceAdd            0      0.00%     86.17% # Number of instructions issued per FU type, per thread (Count)
system.cpu.statIssuedInstType_0::SimdFloatReduceCmp            0      0.00%     86.17% # Number of instructions issued per FU type, per thread (Count)
system.cpu.statIssuedInstType_0::SimdAes            0      0.00%     86.17% # Number of instructions issued per FU type, per thread (Count)
system.cpu.statIssuedInstType_0::SimdAesMix            0      0.00%     86.17% # Number of instructions issued per FU type, per thread (Count)
system.cpu.statIssuedInstType_0::SimdSha1Hash            0      0.00%     86.17% # Number of instructions issued per FU type, per thread (Count)
system.cpu.statIssuedInstType_0::SimdSha1Hash2            0      0.00%     86.17% # Number of instructions issued per FU type, per thread (Count)
system.cpu.statIssuedInstType_0::SimdSha256Hash            0      0.00%     86.17% # Number of instructions issued per FU type, per thread (Count)
system.cpu.statIssuedInstType_0::SimdSha256Hash2            0      0.00%     86.17% # Number of instructions issued per FU type, per thread (Count)
system.cpu.statIssuedInstType_0::SimdShaSigma2            0      0.00%     86.17% # Number of instructions issued per FU type, per thread (Count)
system.cpu.statIssuedInstType_0::SimdShaSigma3            0      0.00%     86.17% # Number of instructions issued per FU type, per thread (Count)
system.cpu.statIssuedInstType_0::SimdPredAlu            0      0.00%     86.17% # Number of instructions issued per FU type, per thread (Count)
system.cpu.statIssuedInstType_0::MemRead      6723987     13.17%     99.35% # Number of instructions issued per FU type, per thread (Count)
system.cpu.statIssuedInstType_0::MemWrite       333231      0.65%    100.00% # Number of instructions issued per FU type, per thread (Count)
system.cpu.statIssuedInstType_0::FloatMemRead            0      0.00%    100.00% # Number of instructions issued per FU type, per thread (Count)
system.cpu.statIssuedInstType_0::FloatMemWrite            0      0.00%    100.00% # Number of instructions issued per FU type, per thread (Count)
system.cpu.statIssuedInstType_0::IprAccess            0      0.00%    100.00% # Number of instructions issued per FU type, per thread (Count)
system.cpu.statIssuedInstType_0::InstPrefetch            0      0.00%    100.00% # Number of instructions issued per FU type, per thread (Count)
system.cpu.statIssuedInstType_0::total       51036975                       # Number of instructions issued per FU type, per thread (Count)
system.cpu.issueRate                         3.199387                       # Inst issue rate ((Count/Cycle))
system.cpu.fuBusy                               75121                       # FU busy when requested (Count)
system.cpu.fuBusyRate                        0.001472                       # FU busy rate (busy events/executed inst) ((Count/Count))
system.cpu.intInstQueueReads                 81285487                       # Number of integer instruction queue reads (Count)
system.cpu.intInstQueueWrites                33483702                       # Number of integer instruction queue writes (Count)
system.cpu.intInstQueueWakeupAccesses        32584709                       # Number of integer instruction queue wakeup accesses (Count)
system.cpu.fpInstQueueReads                         0                       # Number of floating instruction queue reads (Count)
system.cpu.fpInstQueueWrites                        0                       # Number of floating instruction queue writes (Count)
system.cpu.fpInstQueueWakeupAccesses                0                       # Number of floating instruction queue wakeup accesses (Count)
system.cpu.vecInstQueueReads                 36676530                       # Number of vector instruction queue reads (Count)
system.cpu.vecInstQueueWrites                18337915                       # Number of vector instruction queue writes (Count)
system.cpu.vecInstQueueWakeupAccesses        18266951                       # Number of vector instruction queue wakeup accesses (Count)
system.cpu.intAluAccesses                    32767329                       # Number of integer alu accesses (Count)
system.cpu.fpAluAccesses                            0                       # Number of floating point alu accesses (Count)
system.cpu.vecAluAccesses                    15299806                       # Number of vector alu accesses (Count)
system.cpu.numInsts                          51007237                       # Number of executed instructions (Count)
system.cpu.numLoadInsts                       6712035                       # Number of load instructions executed (Count)
system.cpu.numSquashedInsts                     29738                       # Number of squashed instructions skipped in execute (Count)
system.cpu.numSwp                                   0                       # Number of swp insts executed (Count)
system.cpu.numNop                                 438                       # Number of nop insts executed (Count)
system.cpu.numRefs                            7043675                       # Number of memory reference insts executed (Count)
system.cpu.numBranches                        5255514                       # Number of branches executed (Count)
system.cpu.numStoreInsts                       331640                       # Number of stores executed (Count)
system.cpu.numRate                           3.197523                       # Inst execution rate ((Count/Cycle))
system.cpu.timesIdled                            1475                       # Number of times that the entire CPU went into an idle state and unscheduled itself (Count)
system.cpu.idleCycles                          141691                       # Total number of cycles that the CPU has spent unscheduled due to idling (Cycle)
system.cpu.committedInsts                    44146509                       # Number of Instructions Simulated (Count)
system.cpu.committedOps                      50500704                       # Number of Ops (including micro ops) Simulated (Count)
system.cpu.cpi                               0.361345                       # CPI: Cycles Per Instruction ((Cycle/Count))
system.cpu.totalCpi                          0.361345                       # CPI: Total CPI of All Threads ((Cycle/Count))
system.cpu.ipc                               2.767440                       # IPC: Instructions Per Cycle ((Count/Cycle))
system.cpu.totalIpc                          2.767440                       # IPC: Total IPC of All Threads ((Count/Cycle))
system.cpu.intRegfileReads                   48413002                       # Number of integer regfile reads (Count)
system.cpu.intRegfileWrites                  23038669                       # Number of integer regfile writes (Count)
system.cpu.vecRegfileReads                   39576956                       # number of vector regfile reads (Count)
system.cpu.ccRegfileReads                    21283032                       # number of cc regfile reads (Count)
system.cpu.ccRegfileWrites                   21277989                       # number of cc regfile writes (Count)
system.cpu.miscRegfileReads                  32645475                       # number of misc regfile reads (Count)
system.cpu.miscRegfileWrites                      201                       # number of misc regfile writes (Count)
system.cpu.MemDepUnit__0.insertedLoads        6628677                       # Number of loads inserted to the mem dependence unit. (Count)
system.cpu.MemDepUnit__0.insertedStores        338868                       # Number of stores inserted to the mem dependence unit. (Count)
system.cpu.MemDepUnit__0.conflictingLoads         9308                       # Number of conflicting loads. (Count)
system.cpu.MemDepUnit__0.conflictingStores        13411                       # Number of conflicting stores. (Count)
system.cpu.MemDepUnit__1.insertedLoads              0                       # Number of loads inserted to the mem dependence unit. (Count)
system.cpu.MemDepUnit__1.insertedStores             0                       # Number of stores inserted to the mem dependence unit. (Count)
system.cpu.MemDepUnit__1.conflictingLoads            0                       # Number of conflicting loads. (Count)
system.cpu.MemDepUnit__1.conflictingStores            0                       # Number of conflicting stores. (Count)
system.cpu.MemDepUnit__2.insertedLoads              0                       # Number of loads inserted to the mem dependence unit. (Count)
system.cpu.MemDepUnit__2.insertedStores             0                       # Number of stores inserted to the mem dependence unit. (Count)
system.cpu.MemDepUnit__2.conflictingLoads            0                       # Number of conflicting loads. (Count)
system.cpu.MemDepUnit__2.conflictingStores            0                       # Number of conflicting stores. (Count)
system.cpu.MemDepUnit__3.insertedLoads              0                       # Number of loads inserted to the mem dependence unit. (Count)
system.cpu.MemDepUnit__3.insertedStores             0                       # Number of stores inserted to the mem dependence unit. (Count)
system.cpu.MemDepUnit__3.conflictingLoads            0                       # Number of conflicting loads. (Count)
system.cpu.MemDepUnit__3.conflictingStores            0                       # Number of conflicting stores. (Count)
system.cpu.branchPred.lookups                 5392957                       # Number of BP lookups (Count)
system.cpu.branchPred.condPredicted           5316590                       # Number of conditional branches predicted (Count)
system.cpu.branchPred.condIncorrect             19417                       # Number of conditional branches incorrect (Count)
system.cpu.branchPred.BTBLookups              2116435                       # Number of BTB lookups (Count)
system.cpu.branchPred.BTBUpdates                11803                       # Number of BTB updates (Count)
system.cpu.branchPred.BTBHits                 2113583                       # Number of BTB hits (Count)
system.cpu.branchPred.BTBHitRatio            0.998652                       # BTB Hit Ratio (Ratio)
system.cpu.branchPred.RASUsed                   17525                       # Number of times the RAS was used to get a target. (Count)
system.cpu.branchPred.RASIncorrect                 39                       # Number of incorrect RAS predictions. (Count)
system.cpu.branchPred.indirectLookups            6660                       # Number of indirect predictor lookups. (Count)
system.cpu.branchPred.indirectHits               1334                       # Number of indirect target hits. (Count)
system.cpu.branchPred.indirectMisses             5326                       # Number of indirect misses. (Count)
system.cpu.branchPred.indirectMispredicted          669                       # Number of mispredicted indirect branches. (Count)
system.cpu.commit.commitSquashedInsts          656387                       # The number of squashed insts skipped by commit (Count)
system.cpu.commit.commitNonSpecStalls             260                       # The number of times commit has been forced to stall to communicate backwards (Count)
system.cpu.commit.branchMispredicts             19439                       # The number of times a branch was mispredicted (Count)
system.cpu.commit.numCommittedDist::samples     15709286                       # Number of insts commited each cycle (Count)
system.cpu.commit.numCommittedDist::mean     3.214711                       # Number of insts commited each cycle (Count)
system.cpu.commit.numCommittedDist::stdev     3.276936                       # Number of insts commited each cycle (Count)
system.cpu.commit.numCommittedDist::underflows            0      0.00%      0.00% # Number of insts commited each cycle (Count)
system.cpu.commit.numCommittedDist::0         4830221     30.75%     30.75% # Number of insts commited each cycle (Count)
system.cpu.commit.numCommittedDist::1         2047170     13.03%     43.78% # Number of insts commited each cycle (Count)
system.cpu.commit.numCommittedDist::2         2545899     16.21%     59.99% # Number of insts commited each cycle (Count)
system.cpu.commit.numCommittedDist::3          510412      3.25%     63.23% # Number of insts commited each cycle (Count)
system.cpu.commit.numCommittedDist::4          548967      3.49%     66.73% # Number of insts commited each cycle (Count)
system.cpu.commit.numCommittedDist::5          581697      3.70%     70.43% # Number of insts commited each cycle (Count)
system.cpu.commit.numCommittedDist::6           53947      0.34%     70.78% # Number of insts commited each cycle (Count)
system.cpu.commit.numCommittedDist::7          325201      2.07%     72.85% # Number of insts commited each cycle (Count)
system.cpu.commit.numCommittedDist::8         4265772     27.15%    100.00% # Number of insts commited each cycle (Count)
system.cpu.commit.numCommittedDist::overflows            0      0.00%    100.00% # Number of insts commited each cycle (Count)
system.cpu.commit.numCommittedDist::min_value            0                       # Number of insts commited each cycle (Count)
system.cpu.commit.numCommittedDist::max_value            8                       # Number of insts commited each cycle (Count)
system.cpu.commit.numCommittedDist::total     15709286                       # Number of insts commited each cycle (Count)
system.cpu.commit.instsCommitted             44146627                       # Number of instructions committed (Count)
system.cpu.commit.opsCommitted               50500822                       # Number of ops (including micro ops) committed (Count)
system.cpu.commit.memRefs                     6808845                       # Number of memory references committed (Count)
system.cpu.commit.loads                       6507306                       # Number of loads committed (Count)
system.cpu.commit.amos                            100                       # Number of atomic instructions committed (Count)
system.cpu.commit.membars                         108                       # Number of memory barriers committed (Count)
system.cpu.commit.branches                    5198382                       # Number of branches committed (Count)
system.cpu.commit.vectorInstructions         18252223                       # Number of committed Vector instructions. (Count)
system.cpu.commit.floating                          0                       # Number of committed floating point instructions. (Count)
system.cpu.commit.integer                    36393493                       # Number of committed integer instructions. (Count)
system.cpu.commit.functionCalls                 11002                       # Number of function calls committed. (Count)
system.cpu.commit.committedInstType_0::No_OpClass      3041659      6.02%      6.02% # Class of committed instruction (Count)
system.cpu.commit.committedInstType_0::IntAlu     31515655     62.41%     68.43% # Class of committed instruction (Count)
system.cpu.commit.committedInstType_0::IntMult         7068      0.01%     68.44% # Class of committed instruction (Count)
system.cpu.commit.committedInstType_0::IntDiv         2567      0.01%     68.45% # Class of committed instruction (Count)
system.cpu.commit.committedInstType_0::FloatAdd            0      0.00%     68.45% # Class of committed instruction (Count)
system.cpu.commit.committedInstType_0::FloatCmp            0      0.00%     68.45% # Class of committed instruction (Count)
system.cpu.commit.committedInstType_0::FloatCvt            0      0.00%     68.45% # Class of committed instruction (Count)
system.cpu.commit.committedInstType_0::FloatMult            0      0.00%     68.45% # Class of committed instruction (Count)
system.cpu.commit.committedInstType_0::FloatMultAcc            0      0.00%     68.45% # Class of committed instruction (Count)
system.cpu.commit.committedInstType_0::FloatDiv            0      0.00%     68.45% # Class of committed instruction (Count)
system.cpu.commit.committedInstType_0::FloatMisc            2      0.00%     68.45% # Class of committed instruction (Count)
system.cpu.commit.committedInstType_0::FloatSqrt            0      0.00%     68.45% # Class of committed instruction (Count)
system.cpu.commit.committedInstType_0::SimdAdd      3041611      6.02%     74.47% # Class of committed instruction (Count)
system.cpu.commit.committedInstType_0::SimdAddAcc            0      0.00%     74.47% # Class of committed instruction (Count)
system.cpu.commit.committedInstType_0::SimdAlu          151      0.00%     74.47% # Class of committed instruction (Count)
system.cpu.commit.committedInstType_0::SimdCmp           93      0.00%     74.47% # Class of committed instruction (Count)
system.cpu.commit.committedInstType_0::SimdCvt            0      0.00%     74.47% # Class of committed instruction (Count)
system.cpu.commit.committedInstType_0::SimdMisc      3041635      6.02%     80.49% # Class of committed instruction (Count)
system.cpu.commit.committedInstType_0::SimdMult      3041536      6.02%     86.52% # Class of committed instruction (Count)
system.cpu.commit.committedInstType_0::SimdMultAcc            0      0.00%     86.52% # Class of committed instruction (Count)
system.cpu.commit.committedInstType_0::SimdShift            0      0.00%     86.52% # Class of committed instruction (Count)
system.cpu.commit.committedInstType_0::SimdShiftAcc            0      0.00%     86.52% # Class of committed instruction (Count)
system.cpu.commit.committedInstType_0::SimdDiv            0      0.00%     86.52% # Class of committed instruction (Count)
system.cpu.commit.committedInstType_0::SimdSqrt            0      0.00%     86.52% # Class of committed instruction (Count)
system.cpu.commit.committedInstType_0::SimdFloatAdd            0      0.00%     86.52% # Class of committed instruction (Count)
system.cpu.commit.committedInstType_0::SimdFloatAlu            0      0.00%     86.52% # Class of committed instruction (Count)
system.cpu.commit.committedInstType_0::SimdFloatCmp            0      0.00%     86.52% # Class of committed instruction (Count)
system.cpu.commit.committedInstType_0::SimdFloatCvt            0      0.00%     86.52% # Class of committed instruction (Count)
system.cpu.commit.committedInstType_0::SimdFloatDiv            0      0.00%     86.52% # Class of committed instruction (Count)
system.cpu.commit.committedInstType_0::SimdFloatMisc            0      0.00%     86.52% # Class of committed instruction (Count)
system.cpu.commit.committedInstType_0::SimdFloatMult            0      0.00%     86.52% # Class of committed instruction (Count)
system.cpu.commit.committedInstType_0::SimdFloatMultAcc            0      0.00%     86.52% # Class of committed instruction (Count)
system.cpu.commit.committedInstType_0::SimdFloatSqrt            0      0.00%     86.52% # Class of committed instruction (Count)
system.cpu.commit.committedInstType_0::SimdReduceAdd            0      0.00%     86.52% # Class of committed instruction (Count)
system.cpu.commit.committedInstType_0::SimdReduceAlu            0      0.00%     86.52% # Class of committed instruction (Count)
system.cpu.commit.committedInstType_0::SimdReduceCmp            0      0.00%     86.52% # Class of committed instruction (Count)
system.cpu.commit.committedInstType_0::SimdFloatReduceAdd            0      0.00%     86.52% # Class of committed instruction (Count)
system.cpu.commit.committedInstType_0::SimdFloatReduceCmp            0      0.00%     86.52% # Class of committed instruction (Count)
system.cpu.commit.committedInstType_0::SimdAes            0      0.00%     86.52% # Class of committed instruction (Count)
system.cpu.commit.committedInstType_0::SimdAesMix            0      0.00%     86.52% # Class of committed instruction (Count)
system.cpu.commit.committedInstType_0::SimdSha1Hash            0      0.00%     86.52% # Class of committed instruction (Count)
system.cpu.commit.committedInstType_0::SimdSha1Hash2            0      0.00%     86.52% # Class of committed instruction (Count)
system.cpu.commit.committedInstType_0::SimdSha256Hash            0      0.00%     86.52% # Class of committed instruction (Count)
system.cpu.commit.committedInstType_0::SimdSha256Hash2            0      0.00%     86.52% # Class of committed instruction (Count)
system.cpu.commit.committedInstType_0::SimdShaSigma2            0      0.00%     86.52% # Class of committed instruction (Count)
system.cpu.commit.committedInstType_0::SimdShaSigma3            0      0.00%     86.52% # Class of committed instruction (Count)
system.cpu.commit.committedInstType_0::SimdPredAlu            0      0.00%     86.52% # Class of committed instruction (Count)
system.cpu.commit.committedInstType_0::MemRead      6507306     12.89%     99.40% # Class of committed instruction (Count)
system.cpu.commit.committedInstType_0::MemWrite       301539      0.60%    100.00% # Class of committed instruction (Count)
system.cpu.commit.committedInstType_0::FloatMemRead            0      0.00%    100.00% # Class of committed instruction (Count)
system.cpu.commit.committedInstType_0::FloatMemWrite            0      0.00%    100.00% # Class of committed instruction (Count)
system.cpu.commit.committedInstType_0::IprAccess            0      0.00%    100.00% # Class of committed instruction (Count)
system.cpu.commit.committedInstType_0::InstPrefetch            0      0.00%    100.00% # Class of committed instruction (Count)
system.cpu.commit.committedInstType_0::total     50500822                       # Class of committed instruction (Count)
system.cpu.commit.commitEligibleSamples       4265772                       # number cycles where commit BW limit reached (Cycle)
system.cpu.dcache.demandHits::cpu.data        6638470                       # number of demand (read+write) hits (Count)
system.cpu.dcache.demandHits::total           6638470                       # number of demand (read+write) hits (Count)
system.cpu.dcache.overallHits::cpu.data       6638470                       # number of overall hits (Count)
system.cpu.dcache.overallHits::total          6638470                       # number of overall hits (Count)
system.cpu.dcache.demandMisses::cpu.data       231797                       # number of demand (read+write) misses (Count)
system.cpu.dcache.demandMisses::total          231797                       # number of demand (read+write) misses (Count)
system.cpu.dcache.overallMisses::cpu.data       231797                       # number of overall misses (Count)
system.cpu.dcache.overallMisses::total         231797                       # number of overall misses (Count)
system.cpu.dcache.demandMissLatency::cpu.data  16079680445                       # number of demand (read+write) miss ticks (Tick)
system.cpu.dcache.demandMissLatency::total  16079680445                       # number of demand (read+write) miss ticks (Tick)
system.cpu.dcache.overallMissLatency::cpu.data  16079680445                       # number of overall miss ticks (Tick)
system.cpu.dcache.overallMissLatency::total  16079680445                       # number of overall miss ticks (Tick)
system.cpu.dcache.demandAccesses::cpu.data      6870267                       # number of demand (read+write) accesses (Count)
system.cpu.dcache.demandAccesses::total       6870267                       # number of demand (read+write) accesses (Count)
system.cpu.dcache.overallAccesses::cpu.data      6870267                       # number of overall (read+write) accesses (Count)
system.cpu.dcache.overallAccesses::total      6870267                       # number of overall (read+write) accesses (Count)
system.cpu.dcache.demandMissRate::cpu.data     0.033739                       # miss rate for demand accesses (Ratio)
system.cpu.dcache.demandMissRate::total      0.033739                       # miss rate for demand accesses (Ratio)
system.cpu.dcache.overallMissRate::cpu.data     0.033739                       # miss rate for overall accesses (Ratio)
system.cpu.dcache.overallMissRate::total     0.033739                       # miss rate for overall accesses (Ratio)
system.cpu.dcache.demandAvgMissLatency::cpu.data 69369.665893                       # average overall miss latency in ticks ((Tick/Count))
system.cpu.dcache.demandAvgMissLatency::total 69369.665893                       # average overall miss latency in ticks ((Tick/Count))
system.cpu.dcache.overallAvgMissLatency::cpu.data 69369.665893                       # average overall miss latency ((Tick/Count))
system.cpu.dcache.overallAvgMissLatency::total 69369.665893                       # average overall miss latency ((Tick/Count))
system.cpu.dcache.blockedCycles::no_mshrs       769263                       # number of cycles access was blocked (Cycle)
system.cpu.dcache.blockedCycles::no_targets          407                       # number of cycles access was blocked (Cycle)
system.cpu.dcache.blockedCauses::no_mshrs        12278                       # number of times access was blocked (Count)
system.cpu.dcache.blockedCauses::no_targets            9                       # number of times access was blocked (Count)
system.cpu.dcache.avgBlocked::no_mshrs      62.653771                       # average number of cycles each access was blocked ((Cycle/Count))
system.cpu.dcache.avgBlocked::no_targets    45.222222                       # average number of cycles each access was blocked ((Cycle/Count))
system.cpu.dcache.writebacks::writebacks       114195                       # number of writebacks (Count)
system.cpu.dcache.writebacks::total            114195                       # number of writebacks (Count)
system.cpu.dcache.demandMshrHits::cpu.data        58891                       # number of demand (read+write) MSHR hits (Count)
system.cpu.dcache.demandMshrHits::total         58891                       # number of demand (read+write) MSHR hits (Count)
system.cpu.dcache.overallMshrHits::cpu.data        58891                       # number of overall MSHR hits (Count)
system.cpu.dcache.overallMshrHits::total        58891                       # number of overall MSHR hits (Count)
system.cpu.dcache.demandMshrMisses::cpu.data       172906                       # number of demand (read+write) MSHR misses (Count)
system.cpu.dcache.demandMshrMisses::total       172906                       # number of demand (read+write) MSHR misses (Count)
system.cpu.dcache.overallMshrMisses::cpu.data       172906                       # number of overall MSHR misses (Count)
system.cpu.dcache.overallMshrMisses::total       172906                       # number of overall MSHR misses (Count)
system.cpu.dcache.demandMshrMissLatency::cpu.data  12193389161                       # number of demand (read+write) MSHR miss ticks (Tick)
system.cpu.dcache.demandMshrMissLatency::total  12193389161                       # number of demand (read+write) MSHR miss ticks (Tick)
system.cpu.dcache.overallMshrMissLatency::cpu.data  12193389161                       # number of overall MSHR miss ticks (Tick)
system.cpu.dcache.overallMshrMissLatency::total  12193389161                       # number of overall MSHR miss ticks (Tick)
system.cpu.dcache.demandMshrMissRate::cpu.data     0.025167                       # mshr miss ratio for demand accesses (Ratio)
system.cpu.dcache.demandMshrMissRate::total     0.025167                       # mshr miss ratio for demand accesses (Ratio)
system.cpu.dcache.overallMshrMissRate::cpu.data     0.025167                       # mshr miss ratio for overall accesses (Ratio)
system.cpu.dcache.overallMshrMissRate::total     0.025167                       # mshr miss ratio for overall accesses (Ratio)
system.cpu.dcache.demandAvgMshrMissLatency::cpu.data 70520.335680                       # average overall mshr miss latency ((Tick/Count))
system.cpu.dcache.demandAvgMshrMissLatency::total 70520.335680                       # average overall mshr miss latency ((Tick/Count))
system.cpu.dcache.overallAvgMshrMissLatency::cpu.data 70520.335680                       # average overall mshr miss latency ((Tick/Count))
system.cpu.dcache.overallAvgMshrMissLatency::total 70520.335680                       # average overall mshr miss latency ((Tick/Count))
system.cpu.dcache.replacements                 171887                       # number of replacements (Count)
system.cpu.dcache.ReadReq.hits::cpu.data      6454116                       # number of ReadReq hits (Count)
system.cpu.dcache.ReadReq.hits::total         6454116                       # number of ReadReq hits (Count)
system.cpu.dcache.ReadReq.misses::cpu.data       114698                       # number of ReadReq misses (Count)
system.cpu.dcache.ReadReq.misses::total        114698                       # number of ReadReq misses (Count)
system.cpu.dcache.ReadReq.missLatency::cpu.data   6135181000                       # number of ReadReq miss ticks (Tick)
system.cpu.dcache.ReadReq.missLatency::total   6135181000                       # number of ReadReq miss ticks (Tick)
system.cpu.dcache.ReadReq.accesses::cpu.data      6568814                       # number of ReadReq accesses(hits+misses) (Count)
system.cpu.dcache.ReadReq.accesses::total      6568814                       # number of ReadReq accesses(hits+misses) (Count)
system.cpu.dcache.ReadReq.missRate::cpu.data     0.017461                       # miss rate for ReadReq accesses (Ratio)
system.cpu.dcache.ReadReq.missRate::total     0.017461                       # miss rate for ReadReq accesses (Ratio)
system.cpu.dcache.ReadReq.avgMissLatency::cpu.data 53489.869047                       # average ReadReq miss latency ((Tick/Count))
system.cpu.dcache.ReadReq.avgMissLatency::total 53489.869047                       # average ReadReq miss latency ((Tick/Count))
system.cpu.dcache.ReadReq.mshrHits::cpu.data        55441                       # number of ReadReq MSHR hits (Count)
system.cpu.dcache.ReadReq.mshrHits::total        55441                       # number of ReadReq MSHR hits (Count)
system.cpu.dcache.ReadReq.mshrMisses::cpu.data        59257                       # number of ReadReq MSHR misses (Count)
system.cpu.dcache.ReadReq.mshrMisses::total        59257                       # number of ReadReq MSHR misses (Count)
system.cpu.dcache.ReadReq.mshrMissLatency::cpu.data   2562999500                       # number of ReadReq MSHR miss ticks (Tick)
system.cpu.dcache.ReadReq.mshrMissLatency::total   2562999500                       # number of ReadReq MSHR miss ticks (Tick)
system.cpu.dcache.ReadReq.mshrMissRate::cpu.data     0.009021                       # mshr miss rate for ReadReq accesses (Ratio)
system.cpu.dcache.ReadReq.mshrMissRate::total     0.009021                       # mshr miss rate for ReadReq accesses (Ratio)
system.cpu.dcache.ReadReq.avgMshrMissLatency::cpu.data 43252.265555                       # average ReadReq mshr miss latency ((Tick/Count))
system.cpu.dcache.ReadReq.avgMshrMissLatency::total 43252.265555                       # average ReadReq mshr miss latency ((Tick/Count))
system.cpu.dcache.SwapReq.hits::cpu.data           95                       # number of SwapReq hits (Count)
system.cpu.dcache.SwapReq.hits::total              95                       # number of SwapReq hits (Count)
system.cpu.dcache.SwapReq.misses::cpu.data            5                       # number of SwapReq misses (Count)
system.cpu.dcache.SwapReq.misses::total             5                       # number of SwapReq misses (Count)
system.cpu.dcache.SwapReq.missLatency::cpu.data       340500                       # number of SwapReq miss ticks (Tick)
system.cpu.dcache.SwapReq.missLatency::total       340500                       # number of SwapReq miss ticks (Tick)
system.cpu.dcache.SwapReq.accesses::cpu.data          100                       # number of SwapReq accesses(hits+misses) (Count)
system.cpu.dcache.SwapReq.accesses::total          100                       # number of SwapReq accesses(hits+misses) (Count)
system.cpu.dcache.SwapReq.missRate::cpu.data     0.050000                       # miss rate for SwapReq accesses (Ratio)
system.cpu.dcache.SwapReq.missRate::total     0.050000                       # miss rate for SwapReq accesses (Ratio)
system.cpu.dcache.SwapReq.avgMissLatency::cpu.data        68100                       # average SwapReq miss latency ((Tick/Count))
system.cpu.dcache.SwapReq.avgMissLatency::total        68100                       # average SwapReq miss latency ((Tick/Count))
system.cpu.dcache.SwapReq.mshrMisses::cpu.data            5                       # number of SwapReq MSHR misses (Count)
system.cpu.dcache.SwapReq.mshrMisses::total            5                       # number of SwapReq MSHR misses (Count)
system.cpu.dcache.SwapReq.mshrMissLatency::cpu.data       335500                       # number of SwapReq MSHR miss ticks (Tick)
system.cpu.dcache.SwapReq.mshrMissLatency::total       335500                       # number of SwapReq MSHR miss ticks (Tick)
system.cpu.dcache.SwapReq.mshrMissRate::cpu.data     0.050000                       # mshr miss rate for SwapReq accesses (Ratio)
system.cpu.dcache.SwapReq.mshrMissRate::total     0.050000                       # mshr miss rate for SwapReq accesses (Ratio)
system.cpu.dcache.SwapReq.avgMshrMissLatency::cpu.data        67100                       # average SwapReq mshr miss latency ((Tick/Count))
system.cpu.dcache.SwapReq.avgMshrMissLatency::total        67100                       # average SwapReq mshr miss latency ((Tick/Count))
system.cpu.dcache.WriteLineReq.misses::cpu.data          131                       # number of WriteLineReq misses (Count)
system.cpu.dcache.WriteLineReq.misses::total          131                       # number of WriteLineReq misses (Count)
system.cpu.dcache.WriteLineReq.missLatency::cpu.data      4174908                       # number of WriteLineReq miss ticks (Tick)
system.cpu.dcache.WriteLineReq.missLatency::total      4174908                       # number of WriteLineReq miss ticks (Tick)
system.cpu.dcache.WriteLineReq.accesses::cpu.data          131                       # number of WriteLineReq accesses(hits+misses) (Count)
system.cpu.dcache.WriteLineReq.accesses::total          131                       # number of WriteLineReq accesses(hits+misses) (Count)
system.cpu.dcache.WriteLineReq.missRate::cpu.data            1                       # miss rate for WriteLineReq accesses (Ratio)
system.cpu.dcache.WriteLineReq.missRate::total            1                       # miss rate for WriteLineReq accesses (Ratio)
system.cpu.dcache.WriteLineReq.avgMissLatency::cpu.data 31869.526718                       # average WriteLineReq miss latency ((Tick/Count))
system.cpu.dcache.WriteLineReq.avgMissLatency::total 31869.526718                       # average WriteLineReq miss latency ((Tick/Count))
system.cpu.dcache.WriteLineReq.mshrMisses::cpu.data          131                       # number of WriteLineReq MSHR misses (Count)
system.cpu.dcache.WriteLineReq.mshrMisses::total          131                       # number of WriteLineReq MSHR misses (Count)
system.cpu.dcache.WriteLineReq.mshrMissLatency::cpu.data      4043908                       # number of WriteLineReq MSHR miss ticks (Tick)
system.cpu.dcache.WriteLineReq.mshrMissLatency::total      4043908                       # number of WriteLineReq MSHR miss ticks (Tick)
system.cpu.dcache.WriteLineReq.mshrMissRate::cpu.data            1                       # mshr miss rate for WriteLineReq accesses (Ratio)
system.cpu.dcache.WriteLineReq.mshrMissRate::total            1                       # mshr miss rate for WriteLineReq accesses (Ratio)
system.cpu.dcache.WriteLineReq.avgMshrMissLatency::cpu.data 30869.526718                       # average WriteLineReq mshr miss latency ((Tick/Count))
system.cpu.dcache.WriteLineReq.avgMshrMissLatency::total 30869.526718                       # average WriteLineReq mshr miss latency ((Tick/Count))
system.cpu.dcache.WriteReq.hits::cpu.data       184354                       # number of WriteReq hits (Count)
system.cpu.dcache.WriteReq.hits::total         184354                       # number of WriteReq hits (Count)
system.cpu.dcache.WriteReq.misses::cpu.data       116968                       # number of WriteReq misses (Count)
system.cpu.dcache.WriteReq.misses::total       116968                       # number of WriteReq misses (Count)
system.cpu.dcache.WriteReq.missLatency::cpu.data   9940324537                       # number of WriteReq miss ticks (Tick)
system.cpu.dcache.WriteReq.missLatency::total   9940324537                       # number of WriteReq miss ticks (Tick)
system.cpu.dcache.WriteReq.accesses::cpu.data       301322                       # number of WriteReq accesses(hits+misses) (Count)
system.cpu.dcache.WriteReq.accesses::total       301322                       # number of WriteReq accesses(hits+misses) (Count)
system.cpu.dcache.WriteReq.missRate::cpu.data     0.388183                       # miss rate for WriteReq accesses (Ratio)
system.cpu.dcache.WriteReq.missRate::total     0.388183                       # miss rate for WriteReq accesses (Ratio)
system.cpu.dcache.WriteReq.avgMissLatency::cpu.data 84983.282069                       # average WriteReq miss latency ((Tick/Count))
system.cpu.dcache.WriteReq.avgMissLatency::total 84983.282069                       # average WriteReq miss latency ((Tick/Count))
system.cpu.dcache.WriteReq.mshrHits::cpu.data         3450                       # number of WriteReq MSHR hits (Count)
system.cpu.dcache.WriteReq.mshrHits::total         3450                       # number of WriteReq MSHR hits (Count)
system.cpu.dcache.WriteReq.mshrMisses::cpu.data       113518                       # number of WriteReq MSHR misses (Count)
system.cpu.dcache.WriteReq.mshrMisses::total       113518                       # number of WriteReq MSHR misses (Count)
system.cpu.dcache.WriteReq.mshrMissLatency::cpu.data   9626345753                       # number of WriteReq MSHR miss ticks (Tick)
system.cpu.dcache.WriteReq.mshrMissLatency::total   9626345753                       # number of WriteReq MSHR miss ticks (Tick)
system.cpu.dcache.WriteReq.mshrMissRate::cpu.data     0.376733                       # mshr miss rate for WriteReq accesses (Ratio)
system.cpu.dcache.WriteReq.mshrMissRate::total     0.376733                       # mshr miss rate for WriteReq accesses (Ratio)
system.cpu.dcache.WriteReq.avgMshrMissLatency::cpu.data 84800.170484                       # average WriteReq mshr miss latency ((Tick/Count))
system.cpu.dcache.WriteReq.avgMshrMissLatency::total 84800.170484                       # average WriteReq mshr miss latency ((Tick/Count))
system.cpu.dcache.power_state.pwrStateResidencyTicks::UNDEFINED   7976055000                       # Cumulative time (in ticks) in various power states (Tick)
system.cpu.dcache.tags.tagsInUse          1019.305266                       # Average ticks per tags in use ((Tick/Count))
system.cpu.dcache.tags.totalRefs              6811476                       # Total number of references to valid blocks. (Count)
system.cpu.dcache.tags.sampledRefs             172911                       # Sample count of references to valid blocks. (Count)
system.cpu.dcache.tags.avgRefs              39.392959                       # Average number of references to valid blocks. ((Count/Count))
system.cpu.dcache.tags.warmupTick              253500                       # The tick when the warmup percentage was hit. (Tick)
system.cpu.dcache.tags.occupancies::cpu.data  1019.305266                       # Average occupied blocks per tick, per requestor ((Count/Tick))
system.cpu.dcache.tags.avgOccs::cpu.data     0.995415                       # Average percentage of cache occupancy ((Ratio/Tick))
system.cpu.dcache.tags.avgOccs::total        0.995415                       # Average percentage of cache occupancy ((Ratio/Tick))
system.cpu.dcache.tags.occupanciesTaskId::1024         1024                       # Occupied blocks per task id (Count)
system.cpu.dcache.tags.ageTaskId_1024::0           91                       # Occupied blocks per task id, per block age (Count)
system.cpu.dcache.tags.ageTaskId_1024::1          660                       # Occupied blocks per task id, per block age (Count)
system.cpu.dcache.tags.ageTaskId_1024::2          249                       # Occupied blocks per task id, per block age (Count)
system.cpu.dcache.tags.ageTaskId_1024::3           24                       # Occupied blocks per task id, per block age (Count)
system.cpu.dcache.tags.ratioOccsTaskId::1024            1                       # Ratio of occupied blocks and all blocks, per task id (Ratio)
system.cpu.dcache.tags.tagAccesses           27654379                       # Number of tag accesses (Count)
system.cpu.dcache.tags.dataAccesses          27654379                       # Number of data accesses (Count)
system.cpu.dcache.tags.power_state.pwrStateResidencyTicks::UNDEFINED   7976055000                       # Cumulative time (in ticks) in various power states (Tick)
system.cpu.decode.idleCycles                  4080862                       # Number of cycles decode is idle (Cycle)
system.cpu.decode.blockedCycles               3680869                       # Number of cycles decode is blocked (Cycle)
system.cpu.decode.runCycles                   7834591                       # Number of cycles decode is running (Cycle)
system.cpu.decode.unblockCycles                193985                       # Number of cycles decode is unblocking (Cycle)
system.cpu.decode.squashCycles                  20113                       # Number of cycles decode is squashing (Cycle)
system.cpu.decode.branchResolved              2087892                       # Number of times decode resolved a branch (Count)
system.cpu.decode.branchMispred                   844                       # Number of times decode detected a branch misprediction (Count)
system.cpu.decode.decodedInsts               51337827                       # Number of instructions handled by decode (Count)
system.cpu.decode.squashedInsts                  2840                       # Number of squashed instructions handled by decode (Count)
system.cpu.fetch.icacheStallCycles            4252720                       # Number of cycles fetch is stalled on an Icache miss (Cycle)
system.cpu.fetch.insts                       45087445                       # Number of instructions fetch has processed (Count)
system.cpu.fetch.branches                     5392957                       # Number of branches that fetch encountered (Count)
system.cpu.fetch.predictedBranches            2132442                       # Number of branches that fetch has predicted taken (Count)
system.cpu.fetch.cycles                      11530188                       # Number of cycles fetch has run and was not squashing or blocked (Cycle)
system.cpu.fetch.squashCycles                   41862                       # Number of cycles fetch has spent squashing (Cycle)
system.cpu.fetch.miscStallCycles                  877                       # Number of cycles fetch has spent waiting on interrupts, or bad addresses, or out of MSHRs (Cycle)
system.cpu.fetch.pendingTrapStallCycles          5659                       # Number of stall cycles due to pending traps (Cycle)
system.cpu.fetch.icacheWaitRetryStallCycles           45                       # Number of stall cycles due to full MSHR (Cycle)
system.cpu.fetch.cacheLines                   4201738                       # Number of cache lines fetched (Count)
system.cpu.fetch.icacheSquashes                  4928                       # Number of outstanding Icache misses that were squashed (Count)
system.cpu.fetch.nisnDist::samples           15810420                       # Number of instructions fetched each cycle (Total) (Count)
system.cpu.fetch.nisnDist::mean              3.261463                       # Number of instructions fetched each cycle (Total) (Count)
system.cpu.fetch.nisnDist::stdev             3.620527                       # Number of instructions fetched each cycle (Total) (Count)
system.cpu.fetch.nisnDist::underflows               0      0.00%      0.00% # Number of instructions fetched each cycle (Total) (Count)
system.cpu.fetch.nisnDist::0                  7607790     48.12%     48.12% # Number of instructions fetched each cycle (Total) (Count)
system.cpu.fetch.nisnDist::1                    53073      0.34%     48.45% # Number of instructions fetched each cycle (Total) (Count)
system.cpu.fetch.nisnDist::2                  1428701      9.04%     57.49% # Number of instructions fetched each cycle (Total) (Count)
system.cpu.fetch.nisnDist::3                   400048      2.53%     60.02% # Number of instructions fetched each cycle (Total) (Count)
system.cpu.fetch.nisnDist::4                   588107      3.72%     63.74% # Number of instructions fetched each cycle (Total) (Count)
system.cpu.fetch.nisnDist::5                   174337      1.10%     64.84% # Number of instructions fetched each cycle (Total) (Count)
system.cpu.fetch.nisnDist::6                    50286      0.32%     65.16% # Number of instructions fetched each cycle (Total) (Count)
system.cpu.fetch.nisnDist::7                   135980      0.86%     66.02% # Number of instructions fetched each cycle (Total) (Count)
system.cpu.fetch.nisnDist::8                  5372098     33.98%    100.00% # Number of instructions fetched each cycle (Total) (Count)
system.cpu.fetch.nisnDist::overflows                0      0.00%    100.00% # Number of instructions fetched each cycle (Total) (Count)
system.cpu.fetch.nisnDist::min_value                0                       # Number of instructions fetched each cycle (Total) (Count)
system.cpu.fetch.nisnDist::max_value                8                       # Number of instructions fetched each cycle (Total) (Count)
system.cpu.fetch.nisnDist::total             15810420                       # Number of instructions fetched each cycle (Total) (Count)
system.cpu.fetch.branchRate                  0.338072                       # Number of branch fetches per cycle (Ratio)
system.cpu.fetch.rate                        2.826425                       # Number of inst fetches per cycle ((Count/Cycle))
system.cpu.icache.demandHits::cpu.inst        4199113                       # number of demand (read+write) hits (Count)
system.cpu.icache.demandHits::total           4199113                       # number of demand (read+write) hits (Count)
system.cpu.icache.overallHits::cpu.inst       4199113                       # number of overall hits (Count)
system.cpu.icache.overallHits::total          4199113                       # number of overall hits (Count)
system.cpu.icache.demandMisses::cpu.inst         2625                       # number of demand (read+write) misses (Count)
system.cpu.icache.demandMisses::total            2625                       # number of demand (read+write) misses (Count)
system.cpu.icache.overallMisses::cpu.inst         2625                       # number of overall misses (Count)
system.cpu.icache.overallMisses::total           2625                       # number of overall misses (Count)
system.cpu.icache.demandMissLatency::cpu.inst    177452498                       # number of demand (read+write) miss ticks (Tick)
system.cpu.icache.demandMissLatency::total    177452498                       # number of demand (read+write) miss ticks (Tick)
system.cpu.icache.overallMissLatency::cpu.inst    177452498                       # number of overall miss ticks (Tick)
system.cpu.icache.overallMissLatency::total    177452498                       # number of overall miss ticks (Tick)
system.cpu.icache.demandAccesses::cpu.inst      4201738                       # number of demand (read+write) accesses (Count)
system.cpu.icache.demandAccesses::total       4201738                       # number of demand (read+write) accesses (Count)
system.cpu.icache.overallAccesses::cpu.inst      4201738                       # number of overall (read+write) accesses (Count)
system.cpu.icache.overallAccesses::total      4201738                       # number of overall (read+write) accesses (Count)
system.cpu.icache.demandMissRate::cpu.inst     0.000625                       # miss rate for demand accesses (Ratio)
system.cpu.icache.demandMissRate::total      0.000625                       # miss rate for demand accesses (Ratio)
system.cpu.icache.overallMissRate::cpu.inst     0.000625                       # miss rate for overall accesses (Ratio)
system.cpu.icache.overallMissRate::total     0.000625                       # miss rate for overall accesses (Ratio)
system.cpu.icache.demandAvgMissLatency::cpu.inst 67600.951619                       # average overall miss latency in ticks ((Tick/Count))
system.cpu.icache.demandAvgMissLatency::total 67600.951619                       # average overall miss latency in ticks ((Tick/Count))
system.cpu.icache.overallAvgMissLatency::cpu.inst 67600.951619                       # average overall miss latency ((Tick/Count))
system.cpu.icache.overallAvgMissLatency::total 67600.951619                       # average overall miss latency ((Tick/Count))
system.cpu.icache.blockedCycles::no_mshrs          602                       # number of cycles access was blocked (Cycle)
system.cpu.icache.blockedCycles::no_targets            0                       # number of cycles access was blocked (Cycle)
system.cpu.icache.blockedCauses::no_mshrs           14                       # number of times access was blocked (Count)
system.cpu.icache.blockedCauses::no_targets            0                       # number of times access was blocked (Count)
system.cpu.icache.avgBlocked::no_mshrs             43                       # average number of cycles each access was blocked ((Cycle/Count))
system.cpu.icache.avgBlocked::no_targets          nan                       # average number of cycles each access was blocked ((Cycle/Count))
system.cpu.icache.writebacks::writebacks         1799                       # number of writebacks (Count)
system.cpu.icache.writebacks::total              1799                       # number of writebacks (Count)
system.cpu.icache.demandMshrHits::cpu.inst          569                       # number of demand (read+write) MSHR hits (Count)
system.cpu.icache.demandMshrHits::total           569                       # number of demand (read+write) MSHR hits (Count)
system.cpu.icache.overallMshrHits::cpu.inst          569                       # number of overall MSHR hits (Count)
system.cpu.icache.overallMshrHits::total          569                       # number of overall MSHR hits (Count)
system.cpu.icache.demandMshrMisses::cpu.inst         2056                       # number of demand (read+write) MSHR misses (Count)
system.cpu.icache.demandMshrMisses::total         2056                       # number of demand (read+write) MSHR misses (Count)
system.cpu.icache.overallMshrMisses::cpu.inst         2056                       # number of overall MSHR misses (Count)
system.cpu.icache.overallMshrMisses::total         2056                       # number of overall MSHR misses (Count)
system.cpu.icache.demandMshrMissLatency::cpu.inst    140685999                       # number of demand (read+write) MSHR miss ticks (Tick)
system.cpu.icache.demandMshrMissLatency::total    140685999                       # number of demand (read+write) MSHR miss ticks (Tick)
system.cpu.icache.overallMshrMissLatency::cpu.inst    140685999                       # number of overall MSHR miss ticks (Tick)
system.cpu.icache.overallMshrMissLatency::total    140685999                       # number of overall MSHR miss ticks (Tick)
system.cpu.icache.demandMshrMissRate::cpu.inst     0.000489                       # mshr miss ratio for demand accesses (Ratio)
system.cpu.icache.demandMshrMissRate::total     0.000489                       # mshr miss ratio for demand accesses (Ratio)
system.cpu.icache.overallMshrMissRate::cpu.inst     0.000489                       # mshr miss ratio for overall accesses (Ratio)
system.cpu.icache.overallMshrMissRate::total     0.000489                       # mshr miss ratio for overall accesses (Ratio)
system.cpu.icache.demandAvgMshrMissLatency::cpu.inst 68427.042315                       # average overall mshr miss latency ((Tick/Count))
system.cpu.icache.demandAvgMshrMissLatency::total 68427.042315                       # average overall mshr miss latency ((Tick/Count))
system.cpu.icache.overallAvgMshrMissLatency::cpu.inst 68427.042315                       # average overall mshr miss latency ((Tick/Count))
system.cpu.icache.overallAvgMshrMissLatency::total 68427.042315                       # average overall mshr miss latency ((Tick/Count))
system.cpu.icache.replacements                   1799                       # number of replacements (Count)
system.cpu.icache.ReadReq.hits::cpu.inst      4199113                       # number of ReadReq hits (Count)
system.cpu.icache.ReadReq.hits::total         4199113                       # number of ReadReq hits (Count)
system.cpu.icache.ReadReq.misses::cpu.inst         2625                       # number of ReadReq misses (Count)
system.cpu.icache.ReadReq.misses::total          2625                       # number of ReadReq misses (Count)
system.cpu.icache.ReadReq.missLatency::cpu.inst    177452498                       # number of ReadReq miss ticks (Tick)
system.cpu.icache.ReadReq.missLatency::total    177452498                       # number of ReadReq miss ticks (Tick)
system.cpu.icache.ReadReq.accesses::cpu.inst      4201738                       # number of ReadReq accesses(hits+misses) (Count)
system.cpu.icache.ReadReq.accesses::total      4201738                       # number of ReadReq accesses(hits+misses) (Count)
system.cpu.icache.ReadReq.missRate::cpu.inst     0.000625                       # miss rate for ReadReq accesses (Ratio)
system.cpu.icache.ReadReq.missRate::total     0.000625                       # miss rate for ReadReq accesses (Ratio)
system.cpu.icache.ReadReq.avgMissLatency::cpu.inst 67600.951619                       # average ReadReq miss latency ((Tick/Count))
system.cpu.icache.ReadReq.avgMissLatency::total 67600.951619                       # average ReadReq miss latency ((Tick/Count))
system.cpu.icache.ReadReq.mshrHits::cpu.inst          569                       # number of ReadReq MSHR hits (Count)
system.cpu.icache.ReadReq.mshrHits::total          569                       # number of ReadReq MSHR hits (Count)
system.cpu.icache.ReadReq.mshrMisses::cpu.inst         2056                       # number of ReadReq MSHR misses (Count)
system.cpu.icache.ReadReq.mshrMisses::total         2056                       # number of ReadReq MSHR misses (Count)
system.cpu.icache.ReadReq.mshrMissLatency::cpu.inst    140685999                       # number of ReadReq MSHR miss ticks (Tick)
system.cpu.icache.ReadReq.mshrMissLatency::total    140685999                       # number of ReadReq MSHR miss ticks (Tick)
system.cpu.icache.ReadReq.mshrMissRate::cpu.inst     0.000489                       # mshr miss rate for ReadReq accesses (Ratio)
system.cpu.icache.ReadReq.mshrMissRate::total     0.000489                       # mshr miss rate for ReadReq accesses (Ratio)
system.cpu.icache.ReadReq.avgMshrMissLatency::cpu.inst 68427.042315                       # average ReadReq mshr miss latency ((Tick/Count))
system.cpu.icache.ReadReq.avgMshrMissLatency::total 68427.042315                       # average ReadReq mshr miss latency ((Tick/Count))
system.cpu.icache.power_state.pwrStateResidencyTicks::UNDEFINED   7976055000                       # Cumulative time (in ticks) in various power states (Tick)
system.cpu.icache.tags.tagsInUse           255.507813                       # Average ticks per tags in use ((Tick/Count))
system.cpu.icache.tags.totalRefs              4201168                       # Total number of references to valid blocks. (Count)
system.cpu.icache.tags.sampledRefs               2055                       # Sample count of references to valid blocks. (Count)
system.cpu.icache.tags.avgRefs            2044.363990                       # Average number of references to valid blocks. ((Count/Count))
system.cpu.icache.tags.warmupTick               87500                       # The tick when the warmup percentage was hit. (Tick)
system.cpu.icache.tags.occupancies::cpu.inst   255.507813                       # Average occupied blocks per tick, per requestor ((Count/Tick))
system.cpu.icache.tags.avgOccs::cpu.inst     0.998077                       # Average percentage of cache occupancy ((Ratio/Tick))
system.cpu.icache.tags.avgOccs::total        0.998077                       # Average percentage of cache occupancy ((Ratio/Tick))
system.cpu.icache.tags.occupanciesTaskId::1024          256                       # Occupied blocks per task id (Count)
system.cpu.icache.tags.ageTaskId_1024::0           75                       # Occupied blocks per task id, per block age (Count)
system.cpu.icache.tags.ageTaskId_1024::1          108                       # Occupied blocks per task id, per block age (Count)
system.cpu.icache.tags.ageTaskId_1024::3           73                       # Occupied blocks per task id, per block age (Count)
system.cpu.icache.tags.ratioOccsTaskId::1024            1                       # Ratio of occupied blocks and all blocks, per task id (Ratio)
system.cpu.icache.tags.tagAccesses           16809007                       # Number of tag accesses (Count)
system.cpu.icache.tags.dataAccesses          16809007                       # Number of data accesses (Count)
system.cpu.icache.tags.power_state.pwrStateResidencyTicks::UNDEFINED   7976055000                       # Cumulative time (in ticks) in various power states (Tick)
system.cpu.iew.idleCycles                           0                       # Number of cycles IEW is idle (Cycle)
system.cpu.iew.squashCycles                     20113                       # Number of cycles IEW is squashing (Cycle)
system.cpu.iew.blockCycles                    1082301                       # Number of cycles IEW is blocking (Cycle)
system.cpu.iew.unblockCycles                    49630                       # Number of cycles IEW is unblocking (Cycle)
system.cpu.iew.dispatchedInsts               51161555                       # Number of instructions dispatched to IQ (Count)
system.cpu.iew.dispSquashedInsts                16620                       # Number of squashed instructions skipped by dispatch (Count)
system.cpu.iew.dispLoadInsts                  6628677                       # Number of dispatched load instructions (Count)
system.cpu.iew.dispStoreInsts                  338868                       # Number of dispatched store instructions (Count)
system.cpu.iew.dispNonSpecInsts                   380                       # Number of dispatched non-speculative instructions (Count)
system.cpu.iew.iqFullEvents                     18663                       # Number of times the IQ has become full, causing a stall (Count)
system.cpu.iew.lsqFullEvents                    26364                       # Number of times the LSQ has become full, causing a stall (Count)
system.cpu.iew.memOrderViolationEvents             88                       # Number of memory order violations (Count)
system.cpu.iew.predictedTakenIncorrect           7901                       # Number of branches that were predicted taken incorrectly (Count)
system.cpu.iew.predictedNotTakenIncorrect        14015                       # Number of branches that were predicted not taken incorrectly (Count)
system.cpu.iew.branchMispredicts                21916                       # Number of branch mispredicts detected at execute (Count)
system.cpu.iew.instsToCommit                 50864022                       # Cumulative count of insts sent to commit (Count)
system.cpu.iew.writebackCount                50851660                       # Cumulative count of insts written-back (Count)
system.cpu.iew.producerInst                  38990091                       # Number of instructions producing a value (Count)
system.cpu.iew.consumerInst                  63838890                       # Number of instructions consuming a value (Count)
system.cpu.iew.wbRate                        3.187770                       # Insts written-back per cycle ((Count/Cycle))
system.cpu.iew.wbFanout                      0.610758                       # Average fanout of values written-back ((Count/Count))
system.cpu.lsq0.forwLoads                       24478                       # Number of loads that had data forwarded from stores (Count)
system.cpu.lsq0.squashedLoads                  121371                       # Number of loads squashed (Count)
system.cpu.lsq0.ignoredResponses                   42                       # Number of memory responses ignored because the instruction is squashed (Count)
system.cpu.lsq0.memOrderViolation                  88                       # Number of memory ordering violations (Count)
system.cpu.lsq0.squashedStores                  37329                       # Number of stores squashed (Count)
system.cpu.lsq0.rescheduledLoads                 9256                       # Number of loads that were rescheduled (Count)
system.cpu.lsq0.blockedByCache                  11793                       # Number of times an access to memory failed due to the cache being blocked (Count)
system.cpu.lsq0.loadToUse::samples            6507306                       # Distribution of cycle latency between the first time a load is issued and its completion (Unspecified)
system.cpu.lsq0.loadToUse::mean              6.346570                       # Distribution of cycle latency between the first time a load is issued and its completion (Unspecified)
system.cpu.lsq0.loadToUse::stdev            28.680025                       # Distribution of cycle latency between the first time a load is issued and its completion (Unspecified)
system.cpu.lsq0.loadToUse::0-9                6348449     97.56%     97.56% # Distribution of cycle latency between the first time a load is issued and its completion (Unspecified)
system.cpu.lsq0.loadToUse::10-19                12197      0.19%     97.75% # Distribution of cycle latency between the first time a load is issued and its completion (Unspecified)
system.cpu.lsq0.loadToUse::20-29                47551      0.73%     98.48% # Distribution of cycle latency between the first time a load is issued and its completion (Unspecified)
system.cpu.lsq0.loadToUse::30-39                 5903      0.09%     98.57% # Distribution of cycle latency between the first time a load is issued and its completion (Unspecified)
system.cpu.lsq0.loadToUse::40-49                 5132      0.08%     98.65% # Distribution of cycle latency between the first time a load is issued and its completion (Unspecified)
[...]
system.mem_ctrls.dram.perBankWrBursts::10         7159                       # Per bank write bursts (Count)
system.mem_ctrls.dram.perBankWrBursts::11         7579                       # Per bank write bursts (Count)
system.mem_ctrls.dram.perBankWrBursts::12         7140                       # Per bank write bursts (Count)
system.mem_ctrls.dram.perBankWrBursts::13         7680                       # Per bank write bursts (Count)
system.mem_ctrls.dram.perBankWrBursts::14         7076                       # Per bank write bursts (Count)
system.mem_ctrls.dram.perBankWrBursts::15         7247                       # Per bank write bursts (Count)
system.mem_ctrls.dram.totQLat              1944987500                       # Total ticks spent queuing (Tick)
system.mem_ctrls.dram.totBusLat             697165000                       # Total ticks spent in databus transfers (Tick)
system.mem_ctrls.dram.totMemAccLat         4559356250                       # Total ticks spent from burst creation until serviced by the DRAM (Tick)
system.mem_ctrls.dram.avgQLat                13949.26                       # Average queueing delay per DRAM burst ((Tick/Count))
system.mem_ctrls.dram.avgBusLat               5000.00                       # Average bus latency per DRAM burst ((Tick/Count))
system.mem_ctrls.dram.avgMemAccLat           32699.26                       # Average memory access latency per DRAM burst ((Tick/Count))
system.mem_ctrls.dram.readRowHits              122770                       # Number of row buffer hits during reads (Count)
system.mem_ctrls.dram.writeRowHits              99278                       # Number of row buffer hits during writes (Count)
system.mem_ctrls.dram.readRowHitRate            88.05                       # Row buffer hit rate for reads (Ratio)
system.mem_ctrls.dram.writeRowHitRate           89.23                       # Row buffer hit rate for writes (Ratio)
system.mem_ctrls.dram.bytesPerActivate::samples        28629                       # Bytes accessed per row activation (Byte)
system.mem_ctrls.dram.bytesPerActivate::mean   560.335883                       # Bytes accessed per row activation (Byte)
system.mem_ctrls.dram.bytesPerActivate::gmean   393.937767                       # Bytes accessed per row activation (Byte)
system.mem_ctrls.dram.bytesPerActivate::stdev   372.979971                       # Bytes accessed per row activation (Byte)
system.mem_ctrls.dram.bytesPerActivate::0-127         3577     12.49%     12.49% # Bytes accessed per row activation (Byte)
system.mem_ctrls.dram.bytesPerActivate::128-255         4505     15.74%     28.23% # Bytes accessed per row activation (Byte)
system.mem_ctrls.dram.bytesPerActivate::256-383         3012     10.52%     38.75% # Bytes accessed per row activation (Byte)
system.mem_ctrls.dram.bytesPerActivate::384-511         2482      8.67%     47.42% # Bytes accessed per row activation (Byte)
system.mem_ctrls.dram.bytesPerActivate::512-639         2566      8.96%     56.38% # Bytes accessed per row activation (Byte)
system.mem_ctrls.dram.bytesPerActivate::640-767         1581      5.52%     61.91% # Bytes accessed per row activation (Byte)
system.mem_ctrls.dram.bytesPerActivate::768-895         1318      4.60%     66.51% # Bytes accessed per row activation (Byte)
system.mem_ctrls.dram.bytesPerActivate::896-1023         1092      3.81%     70.32% # Bytes accessed per row activation (Byte)
system.mem_ctrls.dram.bytesPerActivate::1024-1151         8496     29.68%    100.00% # Bytes accessed per row activation (Byte)
system.mem_ctrls.dram.bytesPerActivate::total        28629                       # Bytes accessed per row activation (Byte)
system.mem_ctrls.dram.bytesRead               8923712                       # Total bytes read (Byte)
system.mem_ctrls.dram.bytesWritten            7120512                       # Total bytes written (Byte)
system.mem_ctrls.dram.avgRdBW             1118.812746                       # Average DRAM read bandwidth in MiBytes/s ((Byte/Second))
system.mem_ctrls.dram.avgWrBW              892.736071                       # Average DRAM write bandwidth in MiBytes/s ((Byte/Second))
system.mem_ctrls.dram.peakBW                 12800.00                       # Theoretical peak bandwidth in MiByte/s ((Byte/Second))
system.mem_ctrls.dram.busUtil                   15.72                       # Data bus utilization in percentage (Ratio)
system.mem_ctrls.dram.busUtilRead                8.74                       # Data bus utilization in percentage for reads (Ratio)
system.mem_ctrls.dram.busUtilWrite               6.97                       # Data bus utilization in percentage for writes (Ratio)
system.mem_ctrls.dram.pageHitRate               88.57                       # Row buffer hit rate, read and write combined (Ratio)
system.mem_ctrls.dram.power_state.pwrStateResidencyTicks::UNDEFINED   7976055000                       # Cumulative time (in ticks) in various power states (Tick)
system.mem_ctrls.dram.rank0.actEnergy       100324140                       # Energy for activate commands per rank (pJ) (Joule)
system.mem_ctrls.dram.rank0.preEnergy        53300775                       # Energy for precharge commands per rank (pJ) (Joule)
system.mem_ctrls.dram.rank0.readEnergy      476673540                       # Energy for read commands per rank (pJ) (Joule)
system.mem_ctrls.dram.rank0.writeEnergy     277641360                       # Energy for write commands per rank (pJ) (Joule)
system.mem_ctrls.dram.rank0.refreshEnergy 629391360.000000                       # Energy for refresh commands per rank (pJ) (Joule)
system.mem_ctrls.dram.rank0.actBackEnergy   3304406850                       # Energy for active background per rank (pJ) (Joule)
system.mem_ctrls.dram.rank0.preBackEnergy    280146720                       # Energy for precharge background per rank (pJ) (Joule)
system.mem_ctrls.dram.rank0.actPowerDownEnergy            0                       # Energy for active power-down per rank (pJ) (Joule)
system.mem_ctrls.dram.rank0.prePowerDownEnergy            0                       # Energy for precharge power-down per rank (pJ) (Joule)
system.mem_ctrls.dram.rank0.selfRefreshEnergy            0                       # Energy for self refresh per rank (pJ) (Joule)
system.mem_ctrls.dram.rank0.totalEnergy    5121884745                       # Total energy per rank (pJ) (Joule)
system.mem_ctrls.dram.rank0.averagePower   642.157651                       # Core power per rank (mW) (Watt)
system.mem_ctrls.dram.rank0.totalIdleTime            0                       # Total Idle time Per DRAM Rank (Tick)
system.mem_ctrls.dram.rank0.pwrStateTime::IDLE    693730000                       # Time in different power states (Tick)
system.mem_ctrls.dram.rank0.pwrStateTime::REF    266240000                       # Time in different power states (Tick)
system.mem_ctrls.dram.rank0.pwrStateTime::SREF            0                       # Time in different power states (Tick)
system.mem_ctrls.dram.rank0.pwrStateTime::PRE_PDN            0                       # Time in different power states (Tick)
system.mem_ctrls.dram.rank0.pwrStateTime::ACT   7016085000                       # Time in different power states (Tick)
system.mem_ctrls.dram.rank0.pwrStateTime::ACT_PDN            0                       # Time in different power states (Tick)
system.mem_ctrls.dram.rank1.actEnergy       104179740                       # Energy for activate commands per rank (pJ) (Joule)
system.mem_ctrls.dram.rank1.preEnergy        55342485                       # Energy for precharge commands per rank (pJ) (Joule)
system.mem_ctrls.dram.rank1.readEnergy      518878080                       # Energy for read commands per rank (pJ) (Joule)
system.mem_ctrls.dram.rank1.writeEnergy     303094080                       # Energy for write commands per rank (pJ) (Joule)
system.mem_ctrls.dram.rank1.refreshEnergy 629391360.000000                       # Energy for refresh commands per rank (pJ) (Joule)
system.mem_ctrls.dram.rank1.actBackEnergy   3287438520                       # Energy for active background per rank (pJ) (Joule)
system.mem_ctrls.dram.rank1.preBackEnergy    294435840                       # Energy for precharge background per rank (pJ) (Joule)
system.mem_ctrls.dram.rank1.actPowerDownEnergy            0                       # Energy for active power-down per rank (pJ) (Joule)
system.mem_ctrls.dram.rank1.prePowerDownEnergy            0                       # Energy for precharge power-down per rank (pJ) (Joule)
system.mem_ctrls.dram.rank1.selfRefreshEnergy            0                       # Energy for self refresh per rank (pJ) (Joule)
system.mem_ctrls.dram.rank1.totalEnergy    5192760105                       # Total energy per rank (pJ) (Joule)
system.mem_ctrls.dram.rank1.averagePower   651.043668                       # Core power per rank (mW) (Watt)
system.mem_ctrls.dram.rank1.totalIdleTime            0                       # Total Idle time Per DRAM Rank (Tick)
system.mem_ctrls.dram.rank1.pwrStateTime::IDLE    732115250                       # Time in different power states (Tick)
system.mem_ctrls.dram.rank1.pwrStateTime::REF    266240000                       # Time in different power states (Tick)
system.mem_ctrls.dram.rank1.pwrStateTime::SREF            0                       # Time in different power states (Tick)
system.mem_ctrls.dram.rank1.pwrStateTime::PRE_PDN            0                       # Time in different power states (Tick)
system.mem_ctrls.dram.rank1.pwrStateTime::ACT   6977699750                       # Time in different power states (Tick)
system.mem_ctrls.dram.rank1.pwrStateTime::ACT_PDN            0                       # Time in different power states (Tick)
system.mem_ctrls.power_state.pwrStateResidencyTicks::UNDEFINED   7976055000                       # Cumulative time (in ticks) in various power states (Tick)
system.membus.transDist::ReadResp               26582                       # Transaction distribution (Count)
system.membus.transDist::WritebackDirty        111283                       # Transaction distribution (Count)
system.membus.transDist::CleanEvict             24140                       # Transaction distribution (Count)
system.membus.transDist::ReadExReq             112869                       # Transaction distribution (Count)
system.membus.transDist::ReadExResp            112869                       # Transaction distribution (Count)
system.membus.transDist::ReadSharedReq          26582                       # Transaction distribution (Count)
system.membus.transDist::InvalidateReq            145                       # Transaction distribution (Count)
system.membus.pktCount_system.l2.mem_side_port::system.mem_ctrls.port       414470                       # Packet count per connected requestor and responder (Count)
system.membus.pktCount::total                  414470                       # Packet count per connected requestor and responder (Count)
system.membus.pktSize_system.l2.mem_side_port::system.mem_ctrls.port     16046976                       # Cumulative packet size per connected requestor and responder (Byte)
system.membus.pktSize::total                 16046976                       # Cumulative packet size per connected requestor and responder (Byte)
system.membus.snoops                                0                       # Total snoops (Count)
system.membus.snoopTraffic                          0                       # Total snoop traffic (Byte)
system.membus.snoopFanout::samples             139596                       # Request fanout histogram (Count)
system.membus.snoopFanout::mean                     0                       # Request fanout histogram (Count)
system.membus.snoopFanout::stdev                    0                       # Request fanout histogram (Count)
system.membus.snoopFanout::underflows               0      0.00%      0.00% # Request fanout histogram (Count)
system.membus.snoopFanout::0                   139596    100.00%    100.00% # Request fanout histogram (Count)
system.membus.snoopFanout::1                        0      0.00%    100.00% # Request fanout histogram (Count)
system.membus.snoopFanout::overflows                0      0.00%    100.00% # Request fanout histogram (Count)
system.membus.snoopFanout::min_value                0                       # Request fanout histogram (Count)
system.membus.snoopFanout::max_value                0                       # Request fanout histogram (Count)
system.membus.snoopFanout::total               139596                       # Request fanout histogram (Count)
system.membus.power_state.pwrStateResidencyTicks::UNDEFINED   7976055000                       # Cumulative time (in ticks) in various power states (Tick)
system.membus.reqLayer0.occupancy           752386000                       # Layer occupancy (ticks) (Tick)
system.membus.reqLayer0.utilization               0.1                       # Layer utilization (Ratio)
system.membus.respLayer1.occupancy          736084750                       # Layer occupancy (ticks) (Tick)
system.membus.respLayer1.utilization              0.1                       # Layer utilization (Ratio)
system.membus.snoop_filter.totRequests         275019                       # Total number of requests made to the snoop filter. (Count)
system.membus.snoop_filter.hitSingleRequests       135423                       # Number of requests hitting in the snoop filter with a single holder of the requested data. (Count)
system.membus.snoop_filter.hitMultiRequests            0                       # Number of requests hitting in the snoop filter with multiple (>1) holders of the requested data. (Count)
system.membus.snoop_filter.totSnoops                0                       # Total number of snoops made to the snoop filter. (Count)
system.membus.snoop_filter.hitSingleSnoops            0                       # Number of snoops hitting in the snoop filter with a single holder of the requested data. (Count)
system.membus.snoop_filter.hitMultiSnoops            0                       # Number of snoops hitting in the snoop filter with multiple (>1) holders of the requested data. (Count)
system.tol2bus.transDist::ReadResp              61312                       # Transaction distribution (Count)
system.tol2bus.transDist::WritebackDirty       225478                       # Transaction distribution (Count)
system.tol2bus.transDist::WritebackClean         1799                       # Transaction distribution (Count)
system.tol2bus.transDist::CleanEvict            82458                       # Transaction distribution (Count)
system.tol2bus.transDist::ReadExReq            113508                       # Transaction distribution (Count)
system.tol2bus.transDist::ReadExResp           113508                       # Transaction distribution (Count)
system.tol2bus.transDist::ReadCleanReq           2056                       # Transaction distribution (Count)
system.tol2bus.transDist::ReadSharedReq         59257                       # Transaction distribution (Count)
system.tol2bus.transDist::InvalidateReq           146                       # Transaction distribution (Count)
system.tol2bus.transDist::InvalidateResp          146                       # Transaction distribution (Count)
system.tol2bus.pktCount_system.cpu.icache.mem_side_port::system.l2.cpu_side_port         5910                       # Packet count per connected requestor and responder (Count)
system.tol2bus.pktCount_system.cpu.dcache.mem_side_port::system.l2.cpu_side_port       517709                       # Packet count per connected requestor and responder (Count)
system.tol2bus.pktCount::total                 523619                       # Packet count per connected requestor and responder (Count)
system.tol2bus.pktSize_system.cpu.icache.mem_side_port::system.l2.cpu_side_port       246656                       # Cumulative packet size per connected requestor and responder (Byte)
system.tol2bus.pktSize_system.cpu.dcache.mem_side_port::system.l2.cpu_side_port     18365440                       # Cumulative packet size per connected requestor and responder (Byte)
system.tol2bus.pktSize::total                18612096                       # Cumulative packet size per connected requestor and responder (Byte)
system.tol2bus.snoops                          136049                       # Total snoops (Count)
system.tol2bus.snoopTraffic                   7122112                       # Total snoop traffic (Byte)
system.tol2bus.snoopFanout::samples            311016                       # Request fanout histogram (Count)
system.tol2bus.snoopFanout::mean             0.002736                       # Request fanout histogram (Count)
system.tol2bus.snoopFanout::stdev            0.052237                       # Request fanout histogram (Count)
system.tol2bus.snoopFanout::underflows              0      0.00%      0.00% # Request fanout histogram (Count)
system.tol2bus.snoopFanout::0                  310165     99.73%     99.73% # Request fanout histogram (Count)
system.tol2bus.snoopFanout::1                     851      0.27%    100.00% # Request fanout histogram (Count)
system.tol2bus.snoopFanout::2                       0      0.00%    100.00% # Request fanout histogram (Count)
system.tol2bus.snoopFanout::overflows               0      0.00%    100.00% # Request fanout histogram (Count)
system.tol2bus.snoopFanout::min_value               0                       # Request fanout histogram (Count)
system.tol2bus.snoopFanout::max_value               1                       # Request fanout histogram (Count)
system.tol2bus.snoopFanout::total              311016                       # Request fanout histogram (Count)
system.tol2bus.power_state.pwrStateResidencyTicks::UNDEFINED   7976055000                       # Cumulative time (in ticks) in various power states (Tick)
system.tol2bus.reqLayer0.occupancy          290320500                       # Layer occupancy (ticks) (Tick)
system.tol2bus.reqLayer0.utilization              0.0                       # Layer utilization (Ratio)
system.tol2bus.respLayer0.occupancy           3083498                       # Layer occupancy (ticks) (Tick)
system.tol2bus.respLayer0.utilization             0.0                       # Layer utilization (Ratio)
system.tol2bus.respLayer1.occupancy         259220500                       # Layer occupancy (ticks) (Tick)
system.tol2bus.respLayer1.utilization             0.0                       # Layer utilization (Ratio)
system.tol2bus.snoop_filter.totRequests        348653                       # Total number of requests made to the snoop filter. (Count)
system.tol2bus.snoop_filter.hitSingleRequests       173686                       # Number of requests hitting in the snoop filter with a single holder of the requested data. (Count)
system.tol2bus.snoop_filter.hitMultiRequests            1                       # Number of requests hitting in the snoop filter with multiple (>1) holders of the requested data. (Count)
system.tol2bus.snoop_filter.totSnoops             850                       # Total number of snoops made to the snoop filter. (Count)
system.tol2bus.snoop_filter.hitSingleSnoops          850                       # Number of snoops hitting in the snoop filter with a single holder of the requested data. (Count)
system.tol2bus.snoop_filter.hitMultiSnoops            0                       # Number of snoops hitting in the snoop filter with multiple (>1) holders of the requested data. (Count)
system.voltage_domain.voltage                       1                       # Voltage in Volts (Volt)
system.workload.inst.arm                            0                       # number of arm instructions executed (Count)
system.workload.inst.quiesce                        0                       # number of quiesce instructions executed (Count)

---------- End Simulation Statistics   ----------
