
---------- Begin Simulation Statistics ----------
simSeconds                                   0.023520                       # Number of seconds simulated (Second)
simTicks                                  23520114000                       # Number of ticks simulated (Tick)
finalTick                                 23520114000                       # Number of ticks from beginning of simulation (restored from checkpoints and never reset) (Tick)
simFreq                                  1000000000000                       # The number of ticks per simulated second ((Tick/Second))
hostSeconds                                    366.43                       # Real time elapsed on the host (Second)
hostTickRate                                 64187498                       # The number of ticks simulated per host second (ticks/s) ((Tick/Second))
hostMemory                                     681144                       # Number of bytes of host memory used (Byte)
simInsts                                    158437258                       # Number of instructions simulated (Count)
simOps                                      158708947                       # Number of ops (including micro ops) simulated (Count)
hostInstRate                                   432383                       # Simulator instruction rate (inst/s) ((Count/Second))
hostOpRate                                     433124                       # Simulator op (including micro ops) rate (op/s) ((Count/Second))
system.clk_domain.clock                          1000                       # Clock period in ticks (Tick)
system.cpu.numCycles                         47040229                       # Number of cpu cycles simulated (Cycle)
system.cpu.numWorkItemsStarted                      0                       # Number of work items this cpu started (Count)
system.cpu.numWorkItemsCompleted                    0                       # Number of work items this cpu completed (Count)
system.cpu.instsAdded                       159542112                       # Number of instructions added to the IQ (excludes non-spec) (Count)
system.cpu.nonSpecInstsAdded                      430                       # Number of non-speculative instructions added to the IQ (Count)
system.cpu.instsIssued                      159612919                       # Number of instructions issued (Count)
system.cpu.squashedInstsIssued                   2207                       # Number of squashed instructions issued (Count)
system.cpu.squashedInstsExamined               833594                       # Number of squashed instructions iterated over during squash; mainly for profiling (Count)
system.cpu.squashedOperandsExamined            576612                       # Number of squashed operands that are examined and possibly removed from graph (Count)
system.cpu.squashedNonSpecRemoved                 140                       # Number of squashed non-spec instructions that were removed (Count)
system.cpu.numIssuedDist::samples            46895546                       # Number of insts issued each cycle (Count)
system.cpu.numIssuedDist::mean               3.403584                       # Number of insts issued each cycle (Count)
system.cpu.numIssuedDist::stdev              1.919417                       # Number of insts issued each cycle (Count)
system.cpu.numIssuedDist::underflows                0      0.00%      0.00% # Number of insts issued each cycle (Count)
system.cpu.numIssuedDist::0                   6717204     14.32%     14.32% # Number of insts issued each cycle (Count)
system.cpu.numIssuedDist::1                   1063210      2.27%     16.59% # Number of insts issued each cycle (Count)
system.cpu.numIssuedDist::2                   5581893     11.90%     28.49% # Number of insts issued each cycle (Count)
system.cpu.numIssuedDist::3                  10271043     21.90%     50.40% # Number of insts issued each cycle (Count)
system.cpu.numIssuedDist::4                   6964794     14.85%     65.25% # Number of insts issued each cycle (Count)
system.cpu.numIssuedDist::5                   9840756     20.98%     86.23% # Number of insts issued each cycle (Count)
system.cpu.numIssuedDist::6                   5832773     12.44%     98.67% # Number of insts issued each cycle (Count)
system.cpu.numIssuedDist::7                    477784      1.02%     99.69% # Number of insts issued each cycle (Count)
system.cpu.numIssuedDist::8                    146089      0.31%    100.00% # Number of insts issued each cycle (Count)
system.cpu.numIssuedDist::overflows                 0      0.00%    100.00% # Number of insts issued each cycle (Count)
system.cpu.numIssuedDist::min_value                 0                       # Number of insts issued each cycle (Count)
system.cpu.numIssuedDist::max_value                 8                       # Number of insts issued each cycle (Count)
system.cpu.numIssuedDist::total              46895546                       # Number of insts issued each cycle (Count)
system.cpu.statFuBusy::No_OpClass                   0      0.00%      0.00% # attempts to use FU when none available (Count)
system.cpu.statFuBusy::IntAlu                  565575     79.58%     79.58% # attempts to use FU when none available (Count)
system.cpu.statFuBusy::IntMult                      0      0.00%     79.58% # attempts to use FU when none available (Count)
system.cpu.statFuBusy::IntDiv                    1180      0.17%     79.74% # attempts to use FU when none available (Count)
system.cpu.statFuBusy::FloatAdd                     0      0.00%     79.74% # attempts to use FU when none available (Count)
system.cpu.statFuBusy::FloatCmp                     0      0.00%     79.74% # attempts to use FU when none available (Count)
system.cpu.statFuBusy::FloatCvt                     0      0.00%     79.74% # attempts to use FU when none available (Count)
system.cpu.statFuBusy::FloatMult                    0      0.00%     79.74% # attempts to use FU when none available (Count)
system.cpu.statFuBusy::FloatMultAcc                 0      0.00%     79.74% # attempts to use FU when none available (Count)
system.cpu.statFuBusy::FloatDiv                     0      0.00%     79.74% # attempts to use FU when none available (Count)
system.cpu.statFuBusy::FloatMisc                    0      0.00%     79.74% # attempts to use FU when none available (Count)
system.cpu.statFuBusy::FloatSqrt                    0      0.00%     79.74% # attempts to use FU when none available (Count)
system.cpu.statFuBusy::SimdAdd                      0      0.00%     79.74% # attempts to use FU when none available (Count)
system.cpu.statFuBusy::SimdAddAcc                   0      0.00%     79.74% # attempts to use FU when none available (Count)
system.cpu.statFuBusy::SimdAlu                  48728      6.86%     86.60% # attempts to use FU when none available (Count)
system.cpu.statFuBusy::SimdCmp                     14      0.00%     86.60% # attempts to use FU when none available (Count)
system.cpu.statFuBusy::SimdCvt                      0      0.00%     86.60% # attempts to use FU when none available (Count)
system.cpu.statFuBusy::SimdMisc                     0      0.00%     86.60% # attempts to use FU when none available (Count)
system.cpu.statFuBusy::SimdMult                     0      0.00%     86.60% # attempts to use FU when none available (Count)
system.cpu.statFuBusy::SimdMultAcc                  0      0.00%     86.60% # attempts to use FU when none available (Count)
system.cpu.statFuBusy::SimdShift                    0      0.00%     86.60% # attempts to use FU when none available (Count)
system.cpu.statFuBusy::SimdShiftAcc                 0      0.00%     86.60% # attempts to use FU when none available (Count)
system.cpu.statFuBusy::SimdDiv                      0      0.00%     86.60% # attempts to use FU when none available (Count)
system.cpu.statFuBusy::SimdSqrt                     0      0.00%     86.60% # attempts to use FU when none available (Count)
system.cpu.statFuBusy::SimdFloatAdd                 0      0.00%     86.60% # attempts to use FU when none available (Count)
system.cpu.statFuBusy::SimdFloatAlu                 0      0.00%     86.60% # attempts to use FU when none available (Count)
system.cpu.statFuBusy::SimdFloatCmp                 0      0.00%     86.60% # attempts to use FU when none available (Count)
system.cpu.statFuBusy::SimdFloatCvt                 0      0.00%     86.60% # attempts to use FU when none available (Count)
system.cpu.statFuBusy::SimdFloatDiv                 0      0.00%     86.60% # attempts to use FU when none available (Count)
system.cpu.statFuBusy::SimdFloatMisc                0      0.00%     86.60% # attempts to use FU when none available (Count)
system.cpu.statFuBusy::SimdFloatMult                0      0.00%     86.60% # attempts to use FU when none available (Count)
system.cpu.statFuBusy::SimdFloatMultAcc             0      0.00%     86.60% # attempts to use FU when none available (Count)
system.cpu.statFuBusy::SimdFloatSqrt                0      0.00%     86.60% # attempts to use FU when none available (Count)
system.cpu.statFuBusy::SimdReduceAdd                0      0.00%     86.60% # attempts to use FU when none available (Count)
system.cpu.statFuBusy::SimdReduceAlu                0      0.00%     86.60% # attempts to use FU when none available (Count)
system.cpu.statFuBusy::SimdReduceCmp                0      0.00%     86.60% # attempts to use FU when none available (Count)
system.cpu.statFuBusy::SimdFloatReduceAdd            0      0.00%     86.60% # attempts to use FU when none available (Count)
system.cpu.statFuBusy::SimdFloatReduceCmp            0      0.00%     86.60% # attempts to use FU when none available (Count)
system.cpu.statFuBusy::SimdAes                      0      0.00%     86.60% # attempts to use FU when none available (Count)
system.cpu.statFuBusy::SimdAesMix                   0      0.00%     86.60% # attempts to use FU when none available (Count)
system.cpu.statFuBusy::SimdSha1Hash                 0      0.00%     86.60% # attempts to use FU when none available (Count)
system.cpu.statFuBusy::SimdSha1Hash2                0      0.00%     86.60% # attempts to use FU when none available (Count)
system.cpu.statFuBusy::SimdSha256Hash               0      0.00%     86.60% # attempts to use FU when none available (Count)
system.cpu.statFuBusy::SimdSha256Hash2              0      0.00%     86.60% # attempts to use FU when none available (Count)
system.cpu.statFuBusy::SimdShaSigma2                0      0.00%     86.60% # attempts to use FU when none available (Count)
system.cpu.statFuBusy::SimdShaSigma3                0      0.00%     86.60% # attempts to use FU when none available (Count)
system.cpu.statFuBusy::SimdPredAlu                  0      0.00%     86.60% # attempts to use FU when none available (Count)
system.cpu.statFuBusy::MemRead                  80237     11.29%     97.89% # attempts to use FU when none available (Count)
system.cpu.statFuBusy::MemWrite                 14984      2.11%    100.00% # attempts to use FU when none available (Count)
system.cpu.statFuBusy::FloatMemRead                 0      0.00%    100.00% # attempts to use FU when none available (Count)
system.cpu.statFuBusy::FloatMemWrite                0      0.00%    100.00% # attempts to use FU when none available (Count)
system.cpu.statFuBusy::IprAccess                    0      0.00%    100.00% # attempts to use FU when none available (Count)
system.cpu.statFuBusy::InstPrefetch                 0      0.00%    100.00% # attempts to use FU when none available (Count)
system.cpu.statIssuedInstType_0::No_OpClass          935      0.00%      0.00% # Number of instructions issued per FU type, per thread (Count)
system.cpu.statIssuedInstType_0::IntAlu     120523328     75.51%     75.51% # Number of instructions issued per FU type, per thread (Count)
system.cpu.statIssuedInstType_0::IntMult         7658      0.00%     75.52% # Number of instructions issued per FU type, per thread (Count)
system.cpu.statIssuedInstType_0::IntDiv          2722      0.00%     75.52% # Number of instructions issued per FU type, per thread (Count)
system.cpu.statIssuedInstType_0::FloatAdd            0      0.00%     75.52% # Number of instructions issued per FU type, per thread (Count)
system.cpu.statIssuedInstType_0::FloatCmp            0      0.00%     75.52% # Number of instructions issued per FU type, per thread (Count)
system.cpu.statIssuedInstType_0::FloatCvt            0      0.00%     75.52% # Number of instructions issued per FU type, per thread (Count)
system.cpu.statIssuedInstType_0::FloatMult            0      0.00%     75.52% # Number of instructions issued per FU type, per thread (Count)
system.cpu.statIssuedInstType_0::FloatMultAcc            0      0.00%     75.52% # Number of instructions issued per FU type, per thread (Count)
system.cpu.statIssuedInstType_0::FloatDiv            0      0.00%     75.52% # Number of instructions issued per FU type, per thread (Count)
system.cpu.statIssuedInstType_0::FloatMisc            2      0.00%     75.52% # Number of instructions issued per FU type, per thread (Count)
system.cpu.statIssuedInstType_0::FloatSqrt            0      0.00%     75.52% # Number of instructions issued per FU type, per thread (Count)
system.cpu.statIssuedInstType_0::SimdAdd      6258229      3.92%     79.44% # Number of instructions issued per FU type, per thread (Count)
system.cpu.statIssuedInstType_0::SimdAddAcc            0      0.00%     79.44% # Number of instructions issued per FU type, per thread (Count)
system.cpu.statIssuedInstType_0::SimdAlu     12516489      7.84%     87.28% # Number of instructions issued per FU type, per thread (Count)
system.cpu.statIssuedInstType_0::SimdCmp          125      0.00%     87.28% # Number of instructions issued per FU type, per thread (Count)
system.cpu.statIssuedInstType_0::SimdCvt            0      0.00%     87.28% # Number of instructions issued per FU type, per thread (Count)
system.cpu.statIssuedInstType_0::SimdMisc      6258255      3.92%     91.20% # Number of instructions issued per FU type, per thread (Count)
system.cpu.statIssuedInstType_0::SimdMult            0      0.00%     91.20% # Number of instructions issued per FU type, per thread (Count)
system.cpu.statIssuedInstType_0::SimdMultAcc            0      0.00%     91.20% # Number of instructions issued per FU type, per thread (Count)
system.cpu.statIssuedInstType_0::SimdShift            0      0.00%     91.20% # Number of instructions issued per FU type, per thread (Count)
system.cpu.statIssuedInstType_0::SimdShiftAcc            0      0.00%     91.20% # Number of instructions issued per FU type, per thread (Count)
system.cpu.statIssuedInstType_0::SimdDiv            0      0.00%     91.20% # Number of instructions issued per FU type, per thread (Count)
system.cpu.statIssuedInstType_0::SimdSqrt            0      0.00%     91.20% # Number of instructions issued per FU type, per thread (Count)
system.cpu.statIssuedInstType_0::SimdFloatAdd            0      0.00%     91.20% # Number of instructions issued per FU type, per thread (Count)
system.cpu.statIssuedInstType_0::SimdFloatAlu            0      0.00%     91.20% # Number of instructions issued per FU type, per thread (Count)
system.cpu.statIssuedInstType_0::SimdFloatCmp            0      0.00%     91.20% # Number of instructions issued per FU type, per thread (Count)
system.cpu.statIssuedInstType_0::SimdFloatCvt            0      0.00%     91.20% # Number of instructions issued per FU type, per thread (Count)
system.cpu.statIssuedInstType_0::SimdFloatDiv            0      0.00%     91.20% # Number of instructions issued per FU type, per thread (Count)
system.cpu.statIssuedInstType_0::SimdFloatMisc            0      0.00%     91.20% # Number of instructions issued per FU type, per thread (Count)
system.cpu.statIssuedInstType_0::SimdFloatMult            0      0.00%     91.20% # Number of instructions issued per FU type, per thread (Count)
system.cpu.statIssuedInstType_0::SimdFloatMultAcc            0      0.00%     91.20% # Number of instructions issued per FU type, per thread (Count)
system.cpu.statIssuedInstType_0::SimdFloatSqrt            0      0.00%     91.20% # Number of instructions issued per FU type, per thread (Count)
system.cpu.statIssuedInstType_0::SimdReduceAdd            0      0.00%     91.20% # Number of instructions issued per FU type, per thread (Count)
system.cpu.statIssuedInstType_0::SimdReduceAlu            0      0.00%     91.20% # Number of instructions issued per FU type, per thread (Count)
system.cpu.statIssuedInstType_0::SimdReduceCmp            0      0.00%     91.20% # Number of instructions issued per FU type, per thread (Count)
system.cpu.statIssuedInstType_0::SimdFloatReduceAdd            0      0.00%     91.20% # Number of instructions issued per FU type, per thread (Count)
system.cpu.statIssuedInstType_0::SimdFloatReduceCmp            0      0.00%     91.20% # Number of instructions issued per FU type, per thread (Count)
system.cpu.statIssuedInstType_0::SimdAes            0      0.00%     91.20% # Number of instructions issued per FU type, per thread (Count)
system.cpu.statIssuedInstType_0::SimdAesMix            0      0.00%     91.20% # Number of instructions issued per FU type, per thread (Count)
system.cpu.statIssuedInstType_0::SimdSha1Hash            0      0.00%     91.20% # Number of instructions issued per FU type, per thread (Count)
system.cpu.statIssuedInstType_0::SimdSha1Hash2            0      0.00%     91.20% # Number of instructions issued per FU type, per thread (Count)
system.cpu.statIssuedInstType_0::SimdSha256Hash            0      0.00%     91.20% # Number of instructions issued per FU type, per thread (Count)
system.cpu.statIssuedInstType_0::SimdSha256Hash2            0      0.00%     91.20% # Number of instructions issued per FU type, per thread (Count)
system.cpu.statIssuedInstType_0::SimdShaSigma2            0      0.00%     91.20% # Number of instructions issued per FU type, per thread (Count)
system.cpu.statIssuedInstType_0::SimdShaSigma3            0      0.00%     91.20% # Number of instructions issued per FU type, per thread (Count)
system.cpu.statIssuedInstType_0::SimdPredAlu            0      0.00%     91.20% # Number of instructions issued per FU type, per thread (Count)
system.cpu.statIssuedInstType_0::MemRead     13389856      8.39%     99.59% # Number of instructions issued per FU type, per thread (Count)
system.cpu.statIssuedInstType_0::MemWrite       655320      0.41%    100.00% # Number of instructions issued per FU type, per thread (Count)
system.cpu.statIssuedInstType_0::FloatMemRead            0      0.00%    100.00% # Number of instructions issued per FU type, per thread (Count)
system.cpu.statIssuedInstType_0::FloatMemWrite            0      0.00%    100.00% # Number of instructions issued per FU type, per thread (Count)
system.cpu.statIssuedInstType_0::IprAccess            0      0.00%    100.00% # Number of instructions issued per FU type, per thread (Count)
system.cpu.statIssuedInstType_0::InstPrefetch            0      0.00%    100.00% # Number of instructions issued per FU type, per thread (Count)
system.cpu.statIssuedInstType_0::total      159612919                       # Number of instructions issued per FU type, per thread (Count)
system.cpu.issueRate                         3.393115                       # Inst issue rate ((Count/Cycle))
system.cpu.fuBusy                              710718                       # FU busy when requested (Count)
system.cpu.fuBusyRate                        0.004453                       # FU busy rate (busy events/executed inst) ((Count/Count))
system.cpu.intInstQueueReads                291086666                       # Number of integer instruction queue reads (Count)
system.cpu.intInstQueueWrites               122736419                       # Number of integer instruction queue writes (Count)
system.cpu.intInstQueueWakeupAccesses       121634407                       # Number of integer instruction queue wakeup accesses (Count)
system.cpu.fpInstQueueReads                         0                       # Number of floating instruction queue reads (Count)
system.cpu.fpInstQueueWrites                        0                       # Number of floating instruction queue writes (Count)
system.cpu.fpInstQueueWakeupAccesses                0                       # Number of floating instruction queue wakeup accesses (Count)
system.cpu.vecInstQueueReads                 75747643                       # Number of vector instruction queue reads (Count)
system.cpu.vecInstQueueWrites                37639811                       # Number of vector instruction queue writes (Count)
system.cpu.vecInstQueueWakeupAccesses        37552279                       # Number of vector instruction queue wakeup accesses (Count)
system.cpu.intAluAccesses                   122398979                       # Number of integer alu accesses (Count)
system.cpu.fpAluAccesses                            0                       # Number of floating point alu accesses (Count)
system.cpu.vecAluAccesses                    37923723                       # Number of vector alu accesses (Count)
system.cpu.numInsts                         159554793                       # Number of executed instructions (Count)
system.cpu.numLoadInsts                      13378085                       # Number of load instructions executed (Count)
system.cpu.numSquashedInsts                     58126                       # Number of squashed instructions skipped in execute (Count)
system.cpu.numSwp                                   0                       # Number of swp insts executed (Count)
system.cpu.numNop                                 459                       # Number of nop insts executed (Count)
system.cpu.numRefs                           14031836                       # Number of memory reference insts executed (Count)
system.cpu.numBranches                       19362330                       # Number of branches executed (Count)
system.cpu.numStoreInsts                       653751                       # Number of stores executed (Count)
system.cpu.numRate                           3.391880                       # Inst execution rate ((Count/Cycle))
system.cpu.timesIdled                            1491                       # Number of times that the entire CPU went into an idle state and unscheduled itself (Count)
system.cpu.idleCycles                          144683                       # Total number of cycles that the CPU has spent unscheduled due to idling (Cycle)
system.cpu.committedInsts                   158437258                       # Number of Instructions Simulated (Count)
system.cpu.committedOps                     158708947                       # Number of Ops (including micro ops) Simulated (Count)
system.cpu.cpi                               0.296901                       # CPI: Cycles Per Instruction ((Cycle/Count))
system.cpu.totalCpi                          0.296901                       # CPI: Total CPI of All Threads ((Cycle/Count))
system.cpu.ipc                               3.368123                       # IPC: Instructions Per Cycle ((Count/Cycle))
system.cpu.totalIpc                          3.368123                       # IPC: Total IPC of All Threads ((Count/Cycle))
system.cpu.intRegfileReads                  171355287                       # Number of integer regfile reads (Count)
system.cpu.intRegfileWrites                  80651968                       # Number of integer regfile writes (Count)
system.cpu.vecRegfileReads                   62589396                       # number of vector regfile reads (Count)
system.cpu.ccRegfileReads                    81939078                       # number of cc regfile reads (Count)
system.cpu.ccRegfileWrites                   81946332                       # number of cc regfile writes (Count)
system.cpu.miscRegfileReads                  82780194                       # number of misc regfile reads (Count)
system.cpu.miscRegfileWrites                      229                       # number of misc regfile writes (Count)
system.cpu.MemDepUnit__0.insertedLoads       13082087                       # Number of loads inserted to the mem dependence unit. (Count)
system.cpu.MemDepUnit__0.insertedStores        661175                       # Number of stores inserted to the mem dependence unit. (Count)
system.cpu.MemDepUnit__0.conflictingLoads        16375                       # Number of conflicting loads. (Count)
system.cpu.MemDepUnit__0.conflictingStores        16827                       # Number of conflicting stores. (Count)
system.cpu.MemDepUnit__1.insertedLoads              0                       # Number of loads inserted to the mem dependence unit. (Count)
system.cpu.MemDepUnit__1.insertedStores             0                       # Number of stores inserted to the mem dependence unit. (Count)
system.cpu.MemDepUnit__1.conflictingLoads            0                       # Number of conflicting loads. (Count)
system.cpu.MemDepUnit__1.conflictingStores            0                       # Number of conflicting stores. (Count)
system.cpu.MemDepUnit__2.insertedLoads              0                       # Number of loads inserted to the mem dependence unit. (Count)
system.cpu.MemDepUnit__2.insertedStores             0                       # Number of stores inserted to the mem dependence unit. (Count)
system.cpu.MemDepUnit__2.conflictingLoads            0                       # Number of conflicting loads. (Count)
system.cpu.MemDepUnit__2.conflictingStores            0                       # Number of conflicting stores. (Count)
system.cpu.MemDepUnit__3.insertedLoads              0                       # Number of loads inserted to the mem dependence unit. (Count)
system.cpu.MemDepUnit__3.insertedStores             0                       # Number of stores inserted to the mem dependence unit. (Count)
system.cpu.MemDepUnit__3.conflictingLoads            0                       # Number of conflicting loads. (Count)
system.cpu.MemDepUnit__3.conflictingStores            0                       # Number of conflicting stores. (Count)
system.cpu.branchPred.lookups                19517238                       # Number of BP lookups (Count)
system.cpu.branchPred.condPredicted          19438771                       # Number of conditional branches predicted (Count)
system.cpu.branchPred.condIncorrect             23113                       # Number of conditional branches incorrect (Count)
system.cpu.branchPred.BTBLookups              7181576                       # Number of BTB lookups (Count)
system.cpu.branchPred.BTBUpdates                15456                       # Number of BTB updates (Count)
system.cpu.branchPred.BTBHits                 7178579                       # Number of BTB hits (Count)
system.cpu.branchPred.BTBHitRatio            0.999583                       # BTB Hit Ratio (Ratio)
system.cpu.branchPred.RASUsed                   17633                       # Number of times the RAS was used to get a target. (Count)
system.cpu.branchPred.RASIncorrect                 40                       # Number of incorrect RAS predictions. (Count)
system.cpu.branchPred.indirectLookups            6738                       # Number of indirect predictor lookups. (Count)
system.cpu.branchPred.indirectHits               1338                       # Number of indirect target hits. (Count)
system.cpu.branchPred.indirectMisses             5400                       # Number of indirect misses. (Count)
system.cpu.branchPred.indirectMispredicted          679                       # Number of mispredicted indirect branches. (Count)
system.cpu.commit.commitSquashedInsts          824964                       # The number of squashed insts skipped by commit (Count)
system.cpu.commit.commitNonSpecStalls             290                       # The number of times commit has been forced to stall to communicate backwards (Count)
system.cpu.commit.branchMispredicts             23016                       # The number of times a branch was mispredicted (Count)
system.cpu.commit.numCommittedDist::samples     46772061                       # Number of insts commited each cycle (Count)
system.cpu.commit.numCommittedDist::mean     3.393245                       # Number of insts commited each cycle (Count)
system.cpu.commit.numCommittedDist::stdev     3.391601                       # Number of insts commited each cycle (Count)
system.cpu.commit.numCommittedDist::underflows            0      0.00%      0.00% # Number of insts commited each cycle (Count)
system.cpu.commit.numCommittedDist::0        10231469     21.88%     21.88% # Number of insts commited each cycle (Count)
system.cpu.commit.numCommittedDist::1        13414672     28.68%     50.56% # Number of insts commited each cycle (Count)
system.cpu.commit.numCommittedDist::2         4806848     10.28%     60.83% # Number of insts commited each cycle (Count)
system.cpu.commit.numCommittedDist::3          608967      1.30%     62.14% # Number of insts commited each cycle (Count)
system.cpu.commit.numCommittedDist::4         1766081      3.78%     65.91% # Number of insts commited each cycle (Count)
system.cpu.commit.numCommittedDist::5          159409      0.34%     66.25% # Number of insts commited each cycle (Count)
system.cpu.commit.numCommittedDist::6          121288      0.26%     66.51% # Number of insts commited each cycle (Count)
system.cpu.commit.numCommittedDist::7           41917      0.09%     66.60% # Number of insts commited each cycle (Count)
system.cpu.commit.numCommittedDist::8        15621410     33.40%    100.00% # Number of insts commited each cycle (Count)
system.cpu.commit.numCommittedDist::overflows            0      0.00%    100.00% # Number of insts commited each cycle (Count)
system.cpu.commit.numCommittedDist::min_value            0                       # Number of insts commited each cycle (Count)
system.cpu.commit.numCommittedDist::max_value            8                       # Number of insts commited each cycle (Count)
system.cpu.commit.numCommittedDist::total     46772061                       # Number of insts commited each cycle (Count)
system.cpu.commit.instsCommitted            158437376                       # Number of instructions committed (Count)
system.cpu.commit.opsCommitted              158709065                       # Number of ops (including micro ops) committed (Count)
system.cpu.commit.memRefs                    13576487                       # Number of memory references committed (Count)
system.cpu.commit.loads                      12953510                       # Number of loads committed (Count)
system.cpu.commit.amos                            114                       # Number of atomic instructions committed (Count)
system.cpu.commit.membars                         122                       # Number of memory barriers committed (Count)
system.cpu.commit.branches                   19287546                       # Number of branches committed (Count)
system.cpu.commit.vectorInstructions         37512967                       # Number of committed Vector instructions. (Count)
system.cpu.commit.floating                          0                       # Number of committed floating point instructions. (Count)
system.cpu.commit.integer                   120882519                       # Number of committed integer instructions. (Count)
system.cpu.commit.functionCalls                 11042                       # Number of function calls committed. (Count)
system.cpu.commit.committedInstType_0::No_OpClass          137      0.00%      0.00% # Class of committed instruction (Count)
system.cpu.commit.committedInstType_0::IntAlu    120115776     75.68%     75.68% # Class of committed instruction (Count)
system.cpu.commit.committedInstType_0::IntMult         7081      0.00%     75.69% # Class of committed instruction (Count)
system.cpu.commit.committedInstType_0::IntDiv         2572      0.00%     75.69% # Class of committed instruction (Count)
system.cpu.commit.committedInstType_0::FloatAdd            0      0.00%     75.69% # Class of committed instruction (Count)
system.cpu.commit.committedInstType_0::FloatCmp            0      0.00%     75.69% # Class of committed instruction (Count)
system.cpu.commit.committedInstType_0::FloatCvt            0      0.00%     75.69% # Class of committed instruction (Count)
system.cpu.commit.committedInstType_0::FloatMult            0      0.00%     75.69% # Class of committed instruction (Count)
system.cpu.commit.committedInstType_0::FloatMultAcc            0      0.00%     75.69% # Class of committed instruction (Count)
system.cpu.commit.committedInstType_0::FloatDiv            0      0.00%     75.69% # Class of committed instruction (Count)
system.cpu.commit.committedInstType_0::FloatMisc            2      0.00%     75.69% # Class of committed instruction (Count)
system.cpu.commit.committedInstType_0::FloatSqrt            0      0.00%     75.69% # Class of committed instruction (Count)
system.cpu.commit.committedInstType_0::SimdAdd      6251723      3.94%     79.63% # Class of committed instruction (Count)
system.cpu.commit.committedInstType_0::SimdAddAcc            0      0.00%     79.63% # Class of committed instruction (Count)
system.cpu.commit.committedInstType_0::SimdAlu     12503447      7.88%     87.51% # Class of committed instruction (Count)
system.cpu.commit.committedInstType_0::SimdCmp           93      0.00%     87.51% # Class of committed instruction (Count)
system.cpu.commit.committedInstType_0::SimdCvt            0      0.00%     87.51% # Class of committed instruction (Count)
system.cpu.commit.committedInstType_0::SimdMisc      6251747      3.94%     91.45% # Class of committed instruction (Count)
system.cpu.commit.committedInstType_0::SimdMult            0      0.00%     91.45% # Class of committed instruction (Count)
system.cpu.commit.committedInstType_0::SimdMultAcc            0      0.00%     91.45% # Class of committed instruction (Count)
system.cpu.commit.committedInstType_0::SimdShift            0      0.00%     91.45% # Class of committed instruction (Count)
system.cpu.commit.committedInstType_0::SimdShiftAcc            0      0.00%     91.45% # Class of committed instruction (Count)
system.cpu.commit.committedInstType_0::SimdDiv            0      0.00%     91.45% # Class of committed instruction (Count)
system.cpu.commit.committedInstType_0::SimdSqrt            0      0.00%     91.45% # Class of committed instruction (Count)
system.cpu.commit.committedInstType_0::SimdFloatAdd            0      0.00%     91.45% # Class of committed instruction (Count)
system.cpu.commit.committedInstType_0::SimdFloatAlu            0      0.00%     91.45% # Class of committed instruction (Count)
system.cpu.commit.committedInstType_0::SimdFloatCmp            0      0.00%     91.45% # Class of committed instruction (Count)
system.cpu.commit.committedInstType_0::SimdFloatCvt            0      0.00%     91.45% # Class of committed instruction (Count)
system.cpu.commit.committedInstType_0::SimdFloatDiv            0      0.00%     91.45% # Class of committed instruction (Count)
system.cpu.commit.committedInstType_0::SimdFloatMisc            0      0.00%     91.45% # Class of committed instruction (Count)
system.cpu.commit.committedInstType_0::SimdFloatMult            0      0.00%     91.45% # Class of committed instruction (Count)
system.cpu.commit.committedInstType_0::SimdFloatMultAcc            0      0.00%     91.45% # Class of committed instruction (Count)
system.cpu.commit.committedInstType_0::SimdFloatSqrt            0      0.00%     91.45% # Class of committed instruction (Count)
system.cpu.commit.committedInstType_0::SimdReduceAdd            0      0.00%     91.45% # Class of committed instruction (Count)
system.cpu.commit.committedInstType_0::SimdReduceAlu            0      0.00%     91.45% # Class of committed instruction (Count)
system.cpu.commit.committedInstType_0::SimdReduceCmp            0      0.00%     91.45% # Class of committed instruction (Count)
system.cpu.commit.committedInstType_0::SimdFloatReduceAdd            0      0.00%     91.45% # Class of committed instruction (Count)
system.cpu.commit.committedInstType_0::SimdFloatReduceCmp            0      0.00%     91.45% # Class of committed instruction (Count)
system.cpu.commit.committedInstType_0::SimdAes            0      0.00%     91.45% # Class of committed instruction (Count)
system.cpu.commit.committedInstType_0::SimdAesMix            0      0.00%     91.45% # Class of committed instruction (Count)
system.cpu.commit.committedInstType_0::SimdSha1Hash            0      0.00%     91.45% # Class of committed instruction (Count)
system.cpu.commit.committedInstType_0::SimdSha1Hash2            0      0.00%     91.45% # Class of committed instruction (Count)
system.cpu.commit.committedInstType_0::SimdSha256Hash            0      0.00%     91.45% # Class of committed instruction (Count)
system.cpu.commit.committedInstType_0::SimdSha256Hash2            0      0.00%     91.45% # Class of committed instruction (Count)
system.cpu.commit.committedInstType_0::SimdShaSigma2            0      0.00%     91.45% # Class of committed instruction (Count)
system.cpu.commit.committedInstType_0::SimdShaSigma3            0      0.00%     91.45% # Class of committed instruction (Count)
system.cpu.commit.committedInstType_0::SimdPredAlu            0      0.00%     91.45% # Class of committed instruction (Count)
system.cpu.commit.committedInstType_0::MemRead     12953510      8.16%     99.61% # Class of committed instruction (Count)
system.cpu.commit.committedInstType_0::MemWrite       622977      0.39%    100.00% # Class of committed instruction (Count)
system.cpu.commit.committedInstType_0::FloatMemRead            0      0.00%    100.00% # Class of committed instruction (Count)
system.cpu.commit.committedInstType_0::FloatMemWrite            0      0.00%    100.00% # Class of committed instruction (Count)
system.cpu.commit.committedInstType_0::IprAccess            0      0.00%    100.00% # Class of committed instruction (Count)
system.cpu.commit.committedInstType_0::InstPrefetch            0      0.00%    100.00% # Class of committed instruction (Count)
system.cpu.commit.committedInstType_0::total    158709065                       # Class of committed instruction (Count)
system.cpu.commit.commitEligibleSamples      15621410                       # number cycles where commit BW limit reached (Cycle)
system.cpu.dcache.demandHits::cpu.data       13047348                       # number of demand (read+write) hits (Count)
system.cpu.dcache.demandHits::total          13047348                       # number of demand (read+write) hits (Count)
system.cpu.dcache.overallHits::cpu.data      13047348                       # number of overall hits (Count)
system.cpu.dcache.overallHits::total         13047348                       # number of overall hits (Count)
system.cpu.dcache.demandMisses::cpu.data       590714                       # number of demand (read+write) misses (Count)
system.cpu.dcache.demandMisses::total          590714                       # number of demand (read+write) misses (Count)
system.cpu.dcache.overallMisses::cpu.data       590714                       # number of overall misses (Count)
system.cpu.dcache.overallMisses::total         590714                       # number of overall misses (Count)
system.cpu.dcache.demandMissLatency::cpu.data  45154722788                       # number of demand (read+write) miss ticks (Tick)
system.cpu.dcache.demandMissLatency::total  45154722788                       # number of demand (read+write) miss ticks (Tick)
system.cpu.dcache.overallMissLatency::cpu.data  45154722788                       # number of overall miss ticks (Tick)
system.cpu.dcache.overallMissLatency::total  45154722788                       # number of overall miss ticks (Tick)
system.cpu.dcache.demandAccesses::cpu.data     13638062                       # number of demand (read+write) accesses (Count)
system.cpu.dcache.demandAccesses::total      13638062                       # number of demand (read+write) accesses (Count)
system.cpu.dcache.overallAccesses::cpu.data     13638062                       # number of overall (read+write) accesses (Count)
system.cpu.dcache.overallAccesses::total     13638062                       # number of overall (read+write) accesses (Count)
system.cpu.dcache.demandMissRate::cpu.data     0.043314                       # miss rate for demand accesses (Ratio)
system.cpu.dcache.demandMissRate::total      0.043314                       # miss rate for demand accesses (Ratio)
system.cpu.dcache.overallMissRate::cpu.data     0.043314                       # miss rate for overall accesses (Ratio)
system.cpu.dcache.overallMissRate::total     0.043314                       # miss rate for overall accesses (Ratio)
system.cpu.dcache.demandAvgMissLatency::cpu.data 76440.921983                       # average overall miss latency in ticks ((Tick/Count))
system.cpu.dcache.demandAvgMissLatency::total 76440.921983                       # average overall miss latency in ticks ((Tick/Count))
system.cpu.dcache.overallAvgMissLatency::cpu.data 76440.921983                       # average overall miss latency ((Tick/Count))
system.cpu.dcache.overallAvgMissLatency::total 76440.921983                       # average overall miss latency ((Tick/Count))
system.cpu.dcache.blockedCycles::no_mshrs      2825180                       # number of cycles access was blocked (Cycle)
system.cpu.dcache.blockedCycles::no_targets          481                       # number of cycles access was blocked (Cycle)
system.cpu.dcache.blockedCauses::no_mshrs        38117                       # number of times access was blocked (Count)
system.cpu.dcache.blockedCauses::no_targets            8                       # number of times access was blocked (Count)
system.cpu.dcache.avgBlocked::no_mshrs      74.118635                       # average number of cycles each access was blocked ((Cycle/Count))
system.cpu.dcache.avgBlocked::no_targets    60.125000                       # average number of cycles each access was blocked ((Cycle/Count))
system.cpu.dcache.writebacks::writebacks       426001                       # number of writebacks (Count)
system.cpu.dcache.writebacks::total            426001                       # number of writebacks (Count)
system.cpu.dcache.demandMshrHits::cpu.data        50912                       # number of demand (read+write) MSHR hits (Count)
system.cpu.dcache.demandMshrHits::total         50912                       # number of demand (read+write) MSHR hits (Count)
system.cpu.dcache.overallMshrHits::cpu.data        50912                       # number of overall MSHR hits (Count)
system.cpu.dcache.overallMshrHits::total        50912                       # number of overall MSHR hits (Count)
system.cpu.dcache.demandMshrMisses::cpu.data       539802                       # number of demand (read+write) MSHR misses (Count)
system.cpu.dcache.demandMshrMisses::total       539802                       # number of demand (read+write) MSHR misses (Count)
system.cpu.dcache.overallMshrMisses::cpu.data       539802                       # number of overall MSHR misses (Count)
system.cpu.dcache.overallMshrMisses::total       539802                       # number of overall MSHR misses (Count)
system.cpu.dcache.demandMshrMissLatency::cpu.data  41214874513                       # number of demand (read+write) MSHR miss ticks (Tick)
system.cpu.dcache.demandMshrMissLatency::total  41214874513                       # number of demand (read+write) MSHR miss ticks (Tick)
system.cpu.dcache.overallMshrMissLatency::cpu.data  41214874513                       # number of overall MSHR miss ticks (Tick)
system.cpu.dcache.overallMshrMissLatency::total  41214874513                       # number of overall MSHR miss ticks (Tick)
system.cpu.dcache.demandMshrMissRate::cpu.data     0.039581                       # mshr miss ratio for demand accesses (Ratio)
system.cpu.dcache.demandMshrMissRate::total     0.039581                       # mshr miss ratio for demand accesses (Ratio)
system.cpu.dcache.overallMshrMissRate::cpu.data     0.039581                       # mshr miss ratio for overall accesses (Ratio)
system.cpu.dcache.overallMshrMissRate::total     0.039581                       # mshr miss ratio for overall accesses (Ratio)
system.cpu.dcache.demandAvgMshrMissLatency::cpu.data 76351.837364                       # average overall mshr miss latency ((Tick/Count))
system.cpu.dcache.demandAvgMshrMissLatency::total 76351.837364                       # average overall mshr miss latency ((Tick/Count))
system.cpu.dcache.overallAvgMshrMissLatency::cpu.data 76351.837364                       # average overall mshr miss latency ((Tick/Count))
system.cpu.dcache.overallAvgMshrMissLatency::total 76351.837364                       # average overall mshr miss latency ((Tick/Count))
system.cpu.dcache.replacements                 538784                       # number of replacements (Count)
system.cpu.dcache.ReadReq.hits::cpu.data     12853395                       # number of ReadReq hits (Count)
system.cpu.dcache.ReadReq.hits::total        12853395                       # number of ReadReq hits (Count)
system.cpu.dcache.ReadReq.misses::cpu.data       161790                       # number of ReadReq misses (Count)
system.cpu.dcache.ReadReq.misses::total        161790                       # number of ReadReq misses (Count)
system.cpu.dcache.ReadReq.missLatency::cpu.data   7774858000                       # number of ReadReq miss ticks (Tick)
system.cpu.dcache.ReadReq.missLatency::total   7774858000                       # number of ReadReq miss ticks (Tick)
system.cpu.dcache.ReadReq.accesses::cpu.data     13015185                       # number of ReadReq accesses(hits+misses) (Count)
system.cpu.dcache.ReadReq.accesses::total     13015185                       # number of ReadReq accesses(hits+misses) (Count)
system.cpu.dcache.ReadReq.missRate::cpu.data     0.012431                       # miss rate for ReadReq accesses (Ratio)
system.cpu.dcache.ReadReq.missRate::total     0.012431                       # miss rate for ReadReq accesses (Ratio)
system.cpu.dcache.ReadReq.avgMissLatency::cpu.data 48055.244453                       # average ReadReq miss latency ((Tick/Count))
system.cpu.dcache.ReadReq.avgMissLatency::total 48055.244453                       # average ReadReq miss latency ((Tick/Count))
system.cpu.dcache.ReadReq.mshrHits::cpu.data        47451                       # number of ReadReq MSHR hits (Count)
system.cpu.dcache.ReadReq.mshrHits::total        47451                       # number of ReadReq MSHR hits (Count)
system.cpu.dcache.ReadReq.mshrMisses::cpu.data       114339                       # number of ReadReq MSHR misses (Count)
system.cpu.dcache.ReadReq.mshrMisses::total       114339                       # number of ReadReq MSHR misses (Count)
system.cpu.dcache.ReadReq.mshrMissLatency::cpu.data   4464041000                       # number of ReadReq MSHR miss ticks (Tick)
system.cpu.dcache.ReadReq.mshrMissLatency::total   4464041000                       # number of ReadReq MSHR miss ticks (Tick)
system.cpu.dcache.ReadReq.mshrMissRate::cpu.data     0.008785                       # mshr miss rate for ReadReq accesses (Ratio)
system.cpu.dcache.ReadReq.mshrMissRate::total     0.008785                       # mshr miss rate for ReadReq accesses (Ratio)
system.cpu.dcache.ReadReq.avgMshrMissLatency::cpu.data 39042.155345                       # average ReadReq mshr miss latency ((Tick/Count))
system.cpu.dcache.ReadReq.avgMshrMissLatency::total 39042.155345                       # average ReadReq mshr miss latency ((Tick/Count))
system.cpu.dcache.SwapReq.hits::cpu.data          108                       # number of SwapReq hits (Count)
system.cpu.dcache.SwapReq.hits::total             108                       # number of SwapReq hits (Count)
system.cpu.dcache.SwapReq.misses::cpu.data            6                       # number of SwapReq misses (Count)
system.cpu.dcache.SwapReq.misses::total             6                       # number of SwapReq misses (Count)
system.cpu.dcache.SwapReq.missLatency::cpu.data       599000                       # number of SwapReq miss ticks (Tick)
system.cpu.dcache.SwapReq.missLatency::total       599000                       # number of SwapReq miss ticks (Tick)
system.cpu.dcache.SwapReq.accesses::cpu.data          114                       # number of SwapReq accesses(hits+misses) (Count)
system.cpu.dcache.SwapReq.accesses::total          114                       # number of SwapReq accesses(hits+misses) (Count)
system.cpu.dcache.SwapReq.missRate::cpu.data     0.052632                       # miss rate for SwapReq accesses (Ratio)
system.cpu.dcache.SwapReq.missRate::total     0.052632                       # miss rate for SwapReq accesses (Ratio)
system.cpu.dcache.SwapReq.avgMissLatency::cpu.data 99833.333333                       # average SwapReq miss latency ((Tick/Count))
system.cpu.dcache.SwapReq.avgMissLatency::total 99833.333333                       # average SwapReq miss latency ((Tick/Count))
system.cpu.dcache.SwapReq.mshrMisses::cpu.data            6                       # number of SwapReq MSHR misses (Count)
system.cpu.dcache.SwapReq.mshrMisses::total            6                       # number of SwapReq MSHR misses (Count)
system.cpu.dcache.SwapReq.mshrMissLatency::cpu.data       593000                       # number of SwapReq MSHR miss ticks (Tick)
system.cpu.dcache.SwapReq.mshrMissLatency::total       593000                       # number of SwapReq MSHR miss ticks (Tick)
system.cpu.dcache.SwapReq.mshrMissRate::cpu.data     0.052632                       # mshr miss rate for SwapReq accesses (Ratio)
system.cpu.dcache.SwapReq.mshrMissRate::total     0.052632                       # mshr miss rate for SwapReq accesses (Ratio)
system.cpu.dcache.SwapReq.avgMshrMissLatency::cpu.data 98833.333333                       # average SwapReq mshr miss latency ((Tick/Count))
system.cpu.dcache.SwapReq.avgMshrMissLatency::total 98833.333333                       # average SwapReq mshr miss latency ((Tick/Count))
system.cpu.dcache.WriteLineReq.misses::cpu.data          131                       # number of WriteLineReq misses (Count)
system.cpu.dcache.WriteLineReq.misses::total          131                       # number of WriteLineReq misses (Count)
system.cpu.dcache.WriteLineReq.missLatency::cpu.data      4174908                       # number of WriteLineReq miss ticks (Tick)
system.cpu.dcache.WriteLineReq.missLatency::total      4174908                       # number of WriteLineReq miss ticks (Tick)
system.cpu.dcache.WriteLineReq.accesses::cpu.data          131                       # number of WriteLineReq accesses(hits+misses) (Count)
system.cpu.dcache.WriteLineReq.accesses::total          131                       # number of WriteLineReq accesses(hits+misses) (Count)
system.cpu.dcache.WriteLineReq.missRate::cpu.data            1                       # miss rate for WriteLineReq accesses (Ratio)
system.cpu.dcache.WriteLineReq.missRate::total            1                       # miss rate for WriteLineReq accesses (Ratio)
system.cpu.dcache.WriteLineReq.avgMissLatency::cpu.data 31869.526718                       # average WriteLineReq miss latency ((Tick/Count))
system.cpu.dcache.WriteLineReq.avgMissLatency::total 31869.526718                       # average WriteLineReq miss latency ((Tick/Count))
system.cpu.dcache.WriteLineReq.mshrMisses::cpu.data          131                       # number of WriteLineReq MSHR misses (Count)
system.cpu.dcache.WriteLineReq.mshrMisses::total          131                       # number of WriteLineReq MSHR misses (Count)
system.cpu.dcache.WriteLineReq.mshrMissLatency::cpu.data      4043908                       # number of WriteLineReq MSHR miss ticks (Tick)
system.cpu.dcache.WriteLineReq.mshrMissLatency::total      4043908                       # number of WriteLineReq MSHR miss ticks (Tick)
system.cpu.dcache.WriteLineReq.mshrMissRate::cpu.data            1                       # mshr miss rate for WriteLineReq accesses (Ratio)
system.cpu.dcache.WriteLineReq.mshrMissRate::total            1                       # mshr miss rate for WriteLineReq accesses (Ratio)
system.cpu.dcache.WriteLineReq.avgMshrMissLatency::cpu.data 30869.526718                       # average WriteLineReq mshr miss latency ((Tick/Count))
system.cpu.dcache.WriteLineReq.avgMshrMissLatency::total 30869.526718                       # average WriteLineReq mshr miss latency ((Tick/Count))
system.cpu.dcache.WriteReq.hits::cpu.data       193953                       # number of WriteReq hits (Count)
system.cpu.dcache.WriteReq.hits::total         193953                       # number of WriteReq hits (Count)
system.cpu.dcache.WriteReq.misses::cpu.data       428793                       # number of WriteReq misses (Count)
system.cpu.dcache.WriteReq.misses::total       428793                       # number of WriteReq misses (Count)
system.cpu.dcache.WriteReq.missLatency::cpu.data  37375689880                       # number of WriteReq miss ticks (Tick)
system.cpu.dcache.WriteReq.missLatency::total  37375689880                       # number of WriteReq miss ticks (Tick)
system.cpu.dcache.WriteReq.accesses::cpu.data       622746                       # number of WriteReq accesses(hits+misses) (Count)
system.cpu.dcache.WriteReq.accesses::total       622746                       # number of WriteReq accesses(hits+misses) (Count)
system.cpu.dcache.WriteReq.missRate::cpu.data     0.688552                       # miss rate for WriteReq accesses (Ratio)
system.cpu.dcache.WriteReq.missRate::total     0.688552                       # miss rate for WriteReq accesses (Ratio)
system.cpu.dcache.WriteReq.avgMissLatency::cpu.data 87164.878811                       # average WriteReq miss latency ((Tick/Count))
system.cpu.dcache.WriteReq.avgMissLatency::total 87164.878811                       # average WriteReq miss latency ((Tick/Count))
system.cpu.dcache.WriteReq.mshrHits::cpu.data         3461                       # number of WriteReq MSHR hits (Count)
system.cpu.dcache.WriteReq.mshrHits::total         3461                       # number of WriteReq MSHR hits (Count)
system.cpu.dcache.WriteReq.mshrMisses::cpu.data       425332                       # number of WriteReq MSHR misses (Count)
system.cpu.dcache.WriteReq.mshrMisses::total       425332                       # number of WriteReq MSHR misses (Count)
system.cpu.dcache.WriteReq.mshrMissLatency::cpu.data  36746789605                       # number of WriteReq MSHR miss ticks (Tick)
system.cpu.dcache.WriteReq.mshrMissLatency::total  36746789605                       # number of WriteReq MSHR miss ticks (Tick)
system.cpu.dcache.WriteReq.mshrMissRate::cpu.data     0.682994                       # mshr miss rate for WriteReq accesses (Ratio)
system.cpu.dcache.WriteReq.mshrMissRate::total     0.682994                       # mshr miss rate for WriteReq accesses (Ratio)
system.cpu.dcache.WriteReq.avgMshrMissLatency::cpu.data 86395.544198                       # average WriteReq mshr miss latency ((Tick/Count))
system.cpu.dcache.WriteReq.avgMshrMissLatency::total 86395.544198                       # average WriteReq mshr miss latency ((Tick/Count))
system.cpu.dcache.power_state.pwrStateResidencyTicks::UNDEFINED  23520114000                       # Cumulative time (in ticks) in various power states (Tick)
system.cpu.dcache.tags.tagsInUse          1022.411330                       # Average ticks per tags in use ((Tick/Count))
system.cpu.dcache.tags.totalRefs             13587264                       # Total number of references to valid blocks. (Count)
system.cpu.dcache.tags.sampledRefs             539808                       # Sample count of references to valid blocks. (Count)
system.cpu.dcache.tags.avgRefs              25.170550                       # Average number of references to valid blocks. ((Count/Count))
system.cpu.dcache.tags.warmupTick              253500                       # The tick when the warmup percentage was hit. (Tick)
system.cpu.dcache.tags.occupancies::cpu.data  1022.411330                       # Average occupied blocks per tick, per requestor ((Count/Tick))
system.cpu.dcache.tags.avgOccs::cpu.data     0.998449                       # Average percentage of cache occupancy ((Ratio/Tick))
system.cpu.dcache.tags.avgOccs::total        0.998449                       # Average percentage of cache occupancy ((Ratio/Tick))
system.cpu.dcache.tags.occupanciesTaskId::1024         1024                       # Occupied blocks per task id (Count)
system.cpu.dcache.tags.ageTaskId_1024::0           87                       # Occupied blocks per task id, per block age (Count)
system.cpu.dcache.tags.ageTaskId_1024::1          571                       # Occupied blocks per task id, per block age (Count)
system.cpu.dcache.tags.ageTaskId_1024::2          364                       # Occupied blocks per task id, per block age (Count)
system.cpu.dcache.tags.ageTaskId_1024::3            1                       # Occupied blocks per task id, per block age (Count)
system.cpu.dcache.tags.ageTaskId_1024::4            1                       # Occupied blocks per task id, per block age (Count)
system.cpu.dcache.tags.ratioOccsTaskId::1024            1                       # Ratio of occupied blocks and all blocks, per task id (Ratio)
system.cpu.dcache.tags.tagAccesses           55092512                       # Number of tag accesses (Count)
system.cpu.dcache.tags.dataAccesses          55092512                       # Number of data accesses (Count)
system.cpu.dcache.tags.power_state.pwrStateResidencyTicks::UNDEFINED  23520114000                       # Cumulative time (in ticks) in various power states (Tick)
system.cpu.decode.idleCycles                 15305264                       # Number of cycles decode is idle (Cycle)
system.cpu.decode.blockedCycles               7379744                       # Number of cycles decode is blocked (Cycle)
system.cpu.decode.runCycles                  23953751                       # Number of cycles decode is running (Cycle)
system.cpu.decode.unblockCycles                232454                       # Number of cycles decode is unblocking (Cycle)
system.cpu.decode.squashCycles                  24333                       # Number of cycles decode is squashing (Cycle)
system.cpu.decode.branchResolved              7153248                       # Number of times decode resolved a branch (Count)
system.cpu.decode.branchMispred                   876                       # Number of times decode detected a branch misprediction (Count)
system.cpu.decode.decodedInsts              159753905                       # Number of instructions handled by decode (Count)
system.cpu.decode.squashedInsts                  2962                       # Number of squashed instructions handled by decode (Count)
system.cpu.fetch.icacheStallCycles           15637317                       # Number of cycles fetch is stalled on an Icache miss (Cycle)
system.cpu.fetch.insts                      159636243                       # Number of instructions fetch has processed (Count)
system.cpu.fetch.branches                    19517238                       # Number of branches that fetch encountered (Count)
system.cpu.fetch.predictedBranches            7197550                       # Number of branches that fetch has predicted taken (Count)
system.cpu.fetch.cycles                      31227005                       # Number of cycles fetch has run and was not squashing or blocked (Cycle)
system.cpu.fetch.squashCycles                   50360                       # Number of cycles fetch has spent squashing (Cycle)
system.cpu.fetch.miscStallCycles                  789                       # Number of cycles fetch has spent waiting on interrupts, or bad addresses, or out of MSHRs (Cycle)
system.cpu.fetch.pendingTrapStallCycles          5223                       # Number of stall cycles due to pending traps (Cycle)
system.cpu.fetch.icacheWaitRetryStallCycles           32                       # Number of stall cycles due to full MSHR (Cycle)
system.cpu.fetch.cacheLines                  15581454                       # Number of cache lines fetched (Count)
system.cpu.fetch.icacheSquashes                  5277                       # Number of outstanding Icache misses that were squashed (Count)
system.cpu.fetch.nisnDist::samples           46895546                       # Number of instructions fetched each cycle (Total) (Count)
system.cpu.fetch.nisnDist::mean              3.412175                       # Number of instructions fetched each cycle (Total) (Count)
system.cpu.fetch.nisnDist::stdev             3.593065                       # Number of instructions fetched each cycle (Total) (Count)
system.cpu.fetch.nisnDist::underflows               0      0.00%      0.00% # Number of instructions fetched each cycle (Total) (Count)
system.cpu.fetch.nisnDist::0                 22456319     47.89%     47.89% # Number of instructions fetched each cycle (Total) (Count)
system.cpu.fetch.nisnDist::1                   584848      1.25%     49.13% # Number of instructions fetched each cycle (Total) (Count)
system.cpu.fetch.nisnDist::2                   448167      0.96%     50.09% # Number of instructions fetched each cycle (Total) (Count)
system.cpu.fetch.nisnDist::3                    68669      0.15%     50.24% # Number of instructions fetched each cycle (Total) (Count)
system.cpu.fetch.nisnDist::4                  6015628     12.83%     63.06% # Number of instructions fetched each cycle (Total) (Count)
system.cpu.fetch.nisnDist::5                  1342143      2.86%     65.92% # Number of instructions fetched each cycle (Total) (Count)
system.cpu.fetch.nisnDist::6                    82984      0.18%     66.10% # Number of instructions fetched each cycle (Total) (Count)
system.cpu.fetch.nisnDist::7                   116808      0.25%     66.35% # Number of instructions fetched each cycle (Total) (Count)
system.cpu.fetch.nisnDist::8                 15779980     33.65%    100.00% # Number of instructions fetched each cycle (Total) (Count)
system.cpu.fetch.nisnDist::overflows                0      0.00%    100.00% # Number of instructions fetched each cycle (Total) (Count)
system.cpu.fetch.nisnDist::min_value                0                       # Number of instructions fetched each cycle (Total) (Count)
system.cpu.fetch.nisnDist::max_value                8                       # Number of instructions fetched each cycle (Total) (Count)
system.cpu.fetch.nisnDist::total             46895546                       # Number of instructions fetched each cycle (Total) (Count)
system.cpu.fetch.branchRate                  0.414905                       # Number of branch fetches per cycle (Ratio)
system.cpu.fetch.rate                        3.393611                       # Number of inst fetches per cycle ((Count/Cycle))
system.cpu.icache.demandHits::cpu.inst       15578768                       # number of demand (read+write) hits (Count)
system.cpu.icache.demandHits::total          15578768                       # number of demand (read+write) hits (Count)
system.cpu.icache.overallHits::cpu.inst      15578768                       # number of overall hits (Count)
system.cpu.icache.overallHits::total         15578768                       # number of overall hits (Count)
system.cpu.icache.demandMisses::cpu.inst         2686                       # number of demand (read+write) misses (Count)
system.cpu.icache.demandMisses::total            2686                       # number of demand (read+write) misses (Count)
system.cpu.icache.overallMisses::cpu.inst         2686                       # number of overall misses (Count)
system.cpu.icache.overallMisses::total           2686                       # number of overall misses (Count)
system.cpu.icache.demandMissLatency::cpu.inst    183207499                       # number of demand (read+write) miss ticks (Tick)
system.cpu.icache.demandMissLatency::total    183207499                       # number of demand (read+write) miss ticks (Tick)
system.cpu.icache.overallMissLatency::cpu.inst    183207499                       # number of overall miss ticks (Tick)
system.cpu.icache.overallMissLatency::total    183207499                       # number of overall miss ticks (Tick)
system.cpu.icache.demandAccesses::cpu.inst     15581454                       # number of demand (read+write) accesses (Count)
system.cpu.icache.demandAccesses::total      15581454                       # number of demand (read+write) accesses (Count)
system.cpu.icache.overallAccesses::cpu.inst     15581454                       # number of overall (read+write) accesses (Count)
system.cpu.icache.overallAccesses::total     15581454                       # number of overall (read+write) accesses (Count)
system.cpu.icache.demandMissRate::cpu.inst     0.000172                       # miss rate for demand accesses (Ratio)
system.cpu.icache.demandMissRate::total      0.000172                       # miss rate for demand accesses (Ratio)
system.cpu.icache.overallMissRate::cpu.inst     0.000172                       # miss rate for overall accesses (Ratio)
system.cpu.icache.overallMissRate::total     0.000172                       # miss rate for overall accesses (Ratio)
system.cpu.icache.demandAvgMissLatency::cpu.inst 68208.301936                       # average overall miss latency in ticks ((Tick/Count))
system.cpu.icache.demandAvgMissLatency::total 68208.301936                       # average overall miss latency in ticks ((Tick/Count))
system.cpu.icache.overallAvgMissLatency::cpu.inst 68208.301936                       # average overall miss latency ((Tick/Count))
system.cpu.icache.overallAvgMissLatency::total 68208.301936                       # average overall miss latency ((Tick/Count))
system.cpu.icache.blockedCycles::no_mshrs          622                       # number of cycles access was blocked (Cycle)
system.cpu.icache.blockedCycles::no_targets            0                       # number of cycles access was blocked (Cycle)
system.cpu.icache.blockedCauses::no_mshrs           14                       # number of times access was blocked (Count)
system.cpu.icache.blockedCauses::no_targets            0                       # number of times access was blocked (Count)
system.cpu.icache.avgBlocked::no_mshrs      44.428571                       # average number of cycles each access was blocked ((Cycle/Count))
system.cpu.icache.avgBlocked::no_targets          nan                       # average number of cycles each access was blocked ((Cycle/Count))
system.cpu.icache.writebacks::writebacks         1842                       # number of writebacks (Count)
system.cpu.icache.writebacks::total              1842                       # number of writebacks (Count)
system.cpu.icache.demandMshrHits::cpu.inst          587                       # number of demand (read+write) MSHR hits (Count)
system.cpu.icache.demandMshrHits::total           587                       # number of demand (read+write) MSHR hits (Count)
system.cpu.icache.overallMshrHits::cpu.inst          587                       # number of overall MSHR hits (Count)
system.cpu.icache.overallMshrHits::total          587                       # number of overall MSHR hits (Count)
system.cpu.icache.demandMshrMisses::cpu.inst         2099                       # number of demand (read+write) MSHR misses (Count)
system.cpu.icache.demandMshrMisses::total         2099                       # number of demand (read+write) MSHR misses (Count)
system.cpu.icache.overallMshrMisses::cpu.inst         2099                       # number of overall MSHR misses (Count)
system.cpu.icache.overallMshrMisses::total         2099                       # number of overall MSHR misses (Count)
system.cpu.icache.demandMshrMissLatency::cpu.inst    144037500                       # number of demand (read+write) MSHR miss ticks (Tick)
system.cpu.icache.demandMshrMissLatency::total    144037500                       # number of demand (read+write) MSHR miss ticks (Tick)
system.cpu.icache.overallMshrMissLatency::cpu.inst    144037500                       # number of overall MSHR miss ticks (Tick)
system.cpu.icache.overallMshrMissLatency::total    144037500                       # number of overall MSHR miss ticks (Tick)
system.cpu.icache.demandMshrMissRate::cpu.inst     0.000135                       # mshr miss ratio for demand accesses (Ratio)
system.cpu.icache.demandMshrMissRate::total     0.000135                       # mshr miss ratio for demand accesses (Ratio)
system.cpu.icache.overallMshrMissRate::cpu.inst     0.000135                       # mshr miss ratio for overall accesses (Ratio)
system.cpu.icache.overallMshrMissRate::total     0.000135                       # mshr miss ratio for overall accesses (Ratio)
system.cpu.icache.demandAvgMshrMissLatency::cpu.inst 68621.962839                       # average overall mshr miss latency ((Tick/Count))
system.cpu.icache.demandAvgMshrMissLatency::total 68621.962839                       # average overall mshr miss latency ((Tick/Count))
system.cpu.icache.overallAvgMshrMissLatency::cpu.inst 68621.962839                       # average overall mshr miss latency ((Tick/Count))
system.cpu.icache.overallAvgMshrMissLatency::total 68621.962839                       # average overall mshr miss latency ((Tick/Count))
system.cpu.icache.replacements                   1842                       # number of replacements (Count)
system.cpu.icache.ReadReq.hits::cpu.inst     15578768                       # number of ReadReq hits (Count)
system.cpu.icache.ReadReq.hits::total        15578768                       # number of ReadReq hits (Count)
system.cpu.icache.ReadReq.misses::cpu.inst         2686                       # number of ReadReq misses (Count)
system.cpu.icache.ReadReq.misses::total          2686                       # number of ReadReq misses (Count)
system.cpu.icache.ReadReq.missLatency::cpu.inst    183207499                       # number of ReadReq miss ticks (Tick)
system.cpu.icache.ReadReq.missLatency::total    183207499                       # number of ReadReq miss ticks (Tick)
system.cpu.icache.ReadReq.accesses::cpu.inst     15581454                       # number of ReadReq accesses(hits+misses) (Count)
system.cpu.icache.ReadReq.accesses::total     15581454                       # number of ReadReq accesses(hits+misses) (Count)
system.cpu.icache.ReadReq.missRate::cpu.inst     0.000172                       # miss rate for ReadReq accesses (Ratio)
system.cpu.icache.ReadReq.missRate::total     0.000172                       # miss rate for ReadReq accesses (Ratio)
system.cpu.icache.ReadReq.avgMissLatency::cpu.inst 68208.301936                       # average ReadReq miss latency ((Tick/Count))
system.cpu.icache.ReadReq.avgMissLatency::total 68208.301936                       # average ReadReq miss latency ((Tick/Count))
system.cpu.icache.ReadReq.mshrHits::cpu.inst          587                       # number of ReadReq MSHR hits (Count)
system.cpu.icache.ReadReq.mshrHits::total          587                       # number of ReadReq MSHR hits (Count)
system.cpu.icache.ReadReq.mshrMisses::cpu.inst         2099                       # number of ReadReq MSHR misses (Count)
system.cpu.icache.ReadReq.mshrMisses::total         2099                       # number of ReadReq MSHR misses (Count)
system.cpu.icache.ReadReq.mshrMissLatency::cpu.inst    144037500                       # number of ReadReq MSHR miss ticks (Tick)
system.cpu.icache.ReadReq.mshrMissLatency::total    144037500                       # number of ReadReq MSHR miss ticks (Tick)
system.cpu.icache.ReadReq.mshrMissRate::cpu.inst     0.000135                       # mshr miss rate for ReadReq accesses (Ratio)
system.cpu.icache.ReadReq.mshrMissRate::total     0.000135                       # mshr miss rate for ReadReq accesses (Ratio)
system.cpu.icache.ReadReq.avgMshrMissLatency::cpu.inst 68621.962839                       # average ReadReq mshr miss latency ((Tick/Count))
system.cpu.icache.ReadReq.avgMshrMissLatency::total 68621.962839                       # average ReadReq mshr miss latency ((Tick/Count))
system.cpu.icache.power_state.pwrStateResidencyTicks::UNDEFINED  23520114000                       # Cumulative time (in ticks) in various power states (Tick)
system.cpu.icache.tags.tagsInUse           255.833136                       # Average ticks per tags in use ((Tick/Count))
system.cpu.icache.tags.totalRefs             15580866                       # Total number of references to valid blocks. (Count)
system.cpu.icache.tags.sampledRefs               2098                       # Sample count of references to valid blocks. (Count)
system.cpu.icache.tags.avgRefs            7426.532888                       # Average number of references to valid blocks. ((Count/Count))
system.cpu.icache.tags.warmupTick               87500                       # The tick when the warmup percentage was hit. (Tick)
system.cpu.icache.tags.occupancies::cpu.inst   255.833136                       # Average occupied blocks per tick, per requestor ((Count/Tick))
system.cpu.icache.tags.avgOccs::cpu.inst     0.999348                       # Average percentage of cache occupancy ((Ratio/Tick))
system.cpu.icache.tags.avgOccs::total        0.999348                       # Average percentage of cache occupancy ((Ratio/Tick))
system.cpu.icache.tags.occupanciesTaskId::1024          256                       # Occupied blocks per task id (Count)
system.cpu.icache.tags.ageTaskId_1024::0           73                       # Occupied blocks per task id, per block age (Count)
system.cpu.icache.tags.ageTaskId_1024::1           92                       # Occupied blocks per task id, per block age (Count)
system.cpu.icache.tags.ageTaskId_1024::4           91                       # Occupied blocks per task id, per block age (Count)
system.cpu.icache.tags.ratioOccsTaskId::1024            1                       # Ratio of occupied blocks and all blocks, per task id (Ratio)
system.cpu.icache.tags.tagAccesses           62327914                       # Number of tag accesses (Count)
system.cpu.icache.tags.dataAccesses          62327914                       # Number of data accesses (Count)
system.cpu.icache.tags.power_state.pwrStateResidencyTicks::UNDEFINED  23520114000                       # Cumulative time (in ticks) in various power states (Tick)
system.cpu.iew.idleCycles                           0                       # Number of cycles IEW is idle (Cycle)
system.cpu.iew.squashCycles                     24333                       # Number of cycles IEW is squashing (Cycle)
system.cpu.iew.blockCycles                    2182067                       # Number of cycles IEW is blocking (Cycle)
system.cpu.iew.unblockCycles                    71479                       # Number of cycles IEW is unblocking (Cycle)
system.cpu.iew.dispatchedInsts              159543001                       # Number of instructions dispatched to IQ (Count)
system.cpu.iew.dispSquashedInsts                 2190                       # Number of squashed instructions skipped by dispatch (Count)
system.cpu.iew.dispLoadInsts                 13082087                       # Number of dispatched load instructions (Count)
system.cpu.iew.dispStoreInsts                  661175                       # Number of dispatched store instructions (Count)
system.cpu.iew.dispNonSpecInsts                   424                       # Number of dispatched non-speculative instructions (Count)
system.cpu.iew.iqFullEvents                     24602                       # Number of times the IQ has become full, causing a stall (Count)
system.cpu.iew.lsqFullEvents                    32966                       # Number of times the LSQ has become full, causing a stall (Count)
system.cpu.iew.memOrderViolationEvents             95                       # Number of memory order violations (Count)
system.cpu.iew.predictedTakenIncorrect           7933                       # Number of branches that were predicted taken incorrectly (Count)
system.cpu.iew.predictedNotTakenIncorrect        17587                       # Number of branches that were predicted not taken incorrectly (Count)
system.cpu.iew.branchMispredicts                25520                       # Number of branch mispredicts detected at execute (Count)
system.cpu.iew.instsToCommit                159201398                       # Cumulative count of insts sent to commit (Count)
system.cpu.iew.writebackCount               159186686                       # Cumulative count of insts written-back (Count)
system.cpu.iew.producerInst                 118476356                       # Number of instructions producing a value (Count)
system.cpu.iew.consumerInst                 180758110                       # Number of instructions consuming a value (Count)
system.cpu.iew.wbRate                        3.384054                       # Insts written-back per cycle ((Count/Cycle))
system.cpu.iew.wbFanout                      0.655441                       # Average fanout of values written-back ((Count/Count))
system.cpu.lsq0.forwLoads                       31941                       # Number of loads that had data forwarded from stores (Count)
system.cpu.lsq0.squashedLoads                  128577                       # Number of loads squashed (Count)
system.cpu.lsq0.ignoredResponses                   41                       # Number of memory responses ignored because the instruction is squashed (Count)
system.cpu.lsq0.memOrderViolation                  95                       # Number of memory ordering violations (Count)
system.cpu.lsq0.squashedStores                  38198                       # Number of stores squashed (Count)
system.cpu.lsq0.rescheduledLoads                 9284                       # Number of loads that were rescheduled (Count)
system.cpu.lsq0.blockedByCache                  36418                       # Number of times an access to memory failed due to the cache being blocked (Count)
system.cpu.lsq0.loadToUse::samples           12953510                       # Distribution of cycle latency between the first time a load is issued and its completion (Unspecified)
system.cpu.lsq0.loadToUse::mean              6.318416                       # Distribution of cycle latency between the first time a load is issued and its completion (Unspecified)
system.cpu.lsq0.loadToUse::stdev            29.473552                       # Distribution of cycle latency between the first time a load is issued and its completion (Unspecified)
system.cpu.lsq0.loadToUse::0-9               12545892     96.85%     96.85% # Distribution of cycle latency between the first time a load is issued and its completion (Unspecified)
system.cpu.lsq0.loadToUse::10-19                38264      0.30%     97.15% # Distribution of cycle latency between the first time a load is issued and its completion (Unspecified)
system.cpu.lsq0.loadToUse::20-29               101969      0.79%     97.94% # Distribution of cycle latency between the first time a load is issued and its completion (Unspecified)
system.cpu.lsq0.loadToUse::30-39                21312      0.16%     98.10% # Distribution of cycle latency between the first time a load is issued and its completion (Unspecified)
[...]
system.mem_ctrls.dram.perBankWrBursts::10        26160                       # Per bank write bursts (Count)
system.mem_ctrls.dram.perBankWrBursts::11        27624                       # Per bank write bursts (Count)
system.mem_ctrls.dram.perBankWrBursts::12        26629                       # Per bank write bursts (Count)
system.mem_ctrls.dram.perBankWrBursts::13        26728                       # Per bank write bursts (Count)
system.mem_ctrls.dram.perBankWrBursts::14        28107                       # Per bank write bursts (Count)
system.mem_ctrls.dram.perBankWrBursts::15        27230                       # Per bank write bursts (Count)
system.mem_ctrls.dram.totQLat              7086946250                       # Total ticks spent queuing (Tick)
system.mem_ctrls.dram.totBusLat            2334355000                       # Total ticks spent in databus transfers (Tick)
system.mem_ctrls.dram.totMemAccLat        15840777500                       # Total ticks spent from burst creation until serviced by the DRAM (Tick)
system.mem_ctrls.dram.avgQLat                15179.67                       # Average queueing delay per DRAM burst ((Tick/Count))
system.mem_ctrls.dram.avgBusLat               5000.00                       # Average bus latency per DRAM burst ((Tick/Count))
system.mem_ctrls.dram.avgMemAccLat           33929.67                       # Average memory access latency per DRAM burst ((Tick/Count))
system.mem_ctrls.dram.readRowHits              416892                       # Number of row buffer hits during reads (Count)
system.mem_ctrls.dram.writeRowHits             380401                       # Number of row buffer hits during writes (Count)
system.mem_ctrls.dram.readRowHitRate            89.29                       # Row buffer hit rate for reads (Ratio)
system.mem_ctrls.dram.writeRowHitRate           89.71                       # Row buffer hit rate for writes (Ratio)
system.mem_ctrls.dram.bytesPerActivate::samples        93597                       # Bytes accessed per row activation (Byte)
system.mem_ctrls.dram.bytesPerActivate::mean   609.166191                       # Bytes accessed per row activation (Byte)
system.mem_ctrls.dram.bytesPerActivate::gmean   446.862073                       # Bytes accessed per row activation (Byte)
system.mem_ctrls.dram.bytesPerActivate::stdev   370.027141                       # Bytes accessed per row activation (Byte)
system.mem_ctrls.dram.bytesPerActivate::0-127         8439      9.02%      9.02% # Bytes accessed per row activation (Byte)
system.mem_ctrls.dram.bytesPerActivate::128-255        14353     15.33%     24.35% # Bytes accessed per row activation (Byte)
system.mem_ctrls.dram.bytesPerActivate::256-383         8588      9.18%     33.53% # Bytes accessed per row activation (Byte)
system.mem_ctrls.dram.bytesPerActivate::384-511         8016      8.56%     42.09% # Bytes accessed per row activation (Byte)
system.mem_ctrls.dram.bytesPerActivate::512-639         7094      7.58%     49.67% # Bytes accessed per row activation (Byte)
system.mem_ctrls.dram.bytesPerActivate::640-767         5658      6.05%     55.72% # Bytes accessed per row activation (Byte)
system.mem_ctrls.dram.bytesPerActivate::768-895         5228      5.59%     61.30% # Bytes accessed per row activation (Byte)
system.mem_ctrls.dram.bytesPerActivate::896-1023         5295      5.66%     66.96% # Bytes accessed per row activation (Byte)
system.mem_ctrls.dram.bytesPerActivate::1024-1151        30926     33.04%    100.00% # Bytes accessed per row activation (Byte)
system.mem_ctrls.dram.bytesPerActivate::total        93597                       # Bytes accessed per row activation (Byte)
system.mem_ctrls.dram.bytesRead              29879744                       # Total bytes read (Byte)
system.mem_ctrls.dram.bytesWritten           27137984                       # Total bytes written (Byte)
system.mem_ctrls.dram.avgRdBW             1270.391121                       # Average DRAM read bandwidth in MiBytes/s ((Byte/Second))
system.mem_ctrls.dram.avgWrBW             1153.820258                       # Average DRAM write bandwidth in MiBytes/s ((Byte/Second))
system.mem_ctrls.dram.peakBW                 12800.00                       # Theoretical peak bandwidth in MiByte/s ((Byte/Second))
system.mem_ctrls.dram.busUtil                   18.94                       # Data bus utilization in percentage (Ratio)
system.mem_ctrls.dram.busUtilRead                9.92                       # Data bus utilization in percentage for reads (Ratio)
system.mem_ctrls.dram.busUtilWrite               9.01                       # Data bus utilization in percentage for writes (Ratio)
system.mem_ctrls.dram.pageHitRate               89.49                       # Row buffer hit rate, read and write combined (Ratio)
system.mem_ctrls.dram.power_state.pwrStateResidencyTicks::UNDEFINED  23520114000                       # Cumulative time (in ticks) in various power states (Tick)
system.mem_ctrls.dram.rank0.actEnergy       334201980                       # Energy for activate commands per rank (pJ) (Joule)
system.mem_ctrls.dram.rank0.preEnergy       177609795                       # Energy for precharge commands per rank (pJ) (Joule)
system.mem_ctrls.dram.rank0.readEnergy     1649989740                       # Energy for read commands per rank (pJ) (Joule)
system.mem_ctrls.dram.rank0.writeEnergy    1092728700                       # Energy for write commands per rank (pJ) (Joule)
system.mem_ctrls.dram.rank0.refreshEnergy 1856212800.000000                       # Energy for refresh commands per rank (pJ) (Joule)
system.mem_ctrls.dram.rank0.actBackEnergy   9744241200                       # Energy for active background per rank (pJ) (Joule)
system.mem_ctrls.dram.rank0.preBackEnergy    826047360                       # Energy for precharge background per rank (pJ) (Joule)
system.mem_ctrls.dram.rank0.actPowerDownEnergy            0                       # Energy for active power-down per rank (pJ) (Joule)
system.mem_ctrls.dram.rank0.prePowerDownEnergy            0                       # Energy for precharge power-down per rank (pJ) (Joule)
system.mem_ctrls.dram.rank0.selfRefreshEnergy            0                       # Energy for self refresh per rank (pJ) (Joule)
system.mem_ctrls.dram.rank0.totalEnergy   15681031575                       # Total energy per rank (pJ) (Joule)
system.mem_ctrls.dram.rank0.averagePower   666.707295                       # Core power per rank (mW) (Watt)
system.mem_ctrls.dram.rank0.totalIdleTime            0                       # Total Idle time Per DRAM Rank (Tick)
system.mem_ctrls.dram.rank0.pwrStateTime::IDLE   2042348000                       # Time in different power states (Tick)
system.mem_ctrls.dram.rank0.pwrStateTime::REF    785200000                       # Time in different power states (Tick)
system.mem_ctrls.dram.rank0.pwrStateTime::SREF            0                       # Time in different power states (Tick)
system.mem_ctrls.dram.rank0.pwrStateTime::PRE_PDN            0                       # Time in different power states (Tick)
system.mem_ctrls.dram.rank0.pwrStateTime::ACT  20692566000                       # Time in different power states (Tick)
system.mem_ctrls.dram.rank0.pwrStateTime::ACT_PDN            0                       # Time in different power states (Tick)
system.mem_ctrls.dram.rank1.actEnergy       334166280                       # Energy for activate commands per rank (pJ) (Joule)
system.mem_ctrls.dram.rank1.preEnergy       177590820                       # Energy for precharge commands per rank (pJ) (Joule)
system.mem_ctrls.dram.rank1.readEnergy     1683469200                       # Energy for read commands per rank (pJ) (Joule)
system.mem_ctrls.dram.rank1.writeEnergy    1120713120                       # Energy for write commands per rank (pJ) (Joule)
system.mem_ctrls.dram.rank1.refreshEnergy 1856212800.000000                       # Energy for refresh commands per rank (pJ) (Joule)
system.mem_ctrls.dram.rank1.actBackEnergy   9757260570                       # Energy for active background per rank (pJ) (Joule)
system.mem_ctrls.dram.rank1.preBackEnergy    815083680                       # Energy for precharge background per rank (pJ) (Joule)
system.mem_ctrls.dram.rank1.actPowerDownEnergy            0                       # Energy for active power-down per rank (pJ) (Joule)
system.mem_ctrls.dram.rank1.prePowerDownEnergy            0                       # Energy for precharge power-down per rank (pJ) (Joule)
system.mem_ctrls.dram.rank1.selfRefreshEnergy            0                       # Energy for self refresh per rank (pJ) (Joule)
system.mem_ctrls.dram.rank1.totalEnergy   15744496470                       # Total energy per rank (pJ) (Joule)
system.mem_ctrls.dram.rank1.averagePower   669.405619                       # Core power per rank (mW) (Watt)
system.mem_ctrls.dram.rank1.totalIdleTime            0                       # Total Idle time Per DRAM Rank (Tick)
system.mem_ctrls.dram.rank1.pwrStateTime::IDLE   2015211250                       # Time in different power states (Tick)
system.mem_ctrls.dram.rank1.pwrStateTime::REF    785200000                       # Time in different power states (Tick)
system.mem_ctrls.dram.rank1.pwrStateTime::SREF            0                       # Time in different power states (Tick)
system.mem_ctrls.dram.rank1.pwrStateTime::PRE_PDN            0                       # Time in different power states (Tick)
system.mem_ctrls.dram.rank1.pwrStateTime::ACT  20719702750                       # Time in different power states (Tick)
system.mem_ctrls.dram.rank1.pwrStateTime::ACT_PDN            0                       # Time in different power states (Tick)
system.mem_ctrls.power_state.pwrStateResidencyTicks::UNDEFINED  23520114000                       # Cumulative time (in ticks) in various power states (Tick)
system.membus.transDist::ReadResp               42207                       # Transaction distribution (Count)
system.membus.transDist::WritebackDirty        424050                       # Transaction distribution (Count)
system.membus.transDist::CleanEvict             38795                       # Transaction distribution (Count)
system.membus.transDist::ReadExReq             424684                       # Transaction distribution (Count)
system.membus.transDist::ReadExResp            424684                       # Transaction distribution (Count)
system.membus.transDist::ReadSharedReq          42207                       # Transaction distribution (Count)
system.membus.transDist::InvalidateReq            146                       # Transaction distribution (Count)
system.membus.pktCount_system.l2.mem_side_port::system.mem_ctrls.port      1396773                       # Packet count per connected requestor and responder (Count)
system.membus.pktCount::total                 1396773                       # Packet count per connected requestor and responder (Count)
system.membus.pktSize_system.l2.mem_side_port::system.mem_ctrls.port     57020224                       # Cumulative packet size per connected requestor and responder (Byte)
system.membus.pktSize::total                 57020224                       # Cumulative packet size per connected requestor and responder (Byte)
system.membus.snoops                                0                       # Total snoops (Count)
system.membus.snoopTraffic                          0                       # Total snoop traffic (Byte)
system.membus.snoopFanout::samples             467037                       # Request fanout histogram (Count)
system.membus.snoopFanout::mean                     0                       # Request fanout histogram (Count)
system.membus.snoopFanout::stdev                    0                       # Request fanout histogram (Count)
system.membus.snoopFanout::underflows               0      0.00%      0.00% # Request fanout histogram (Count)
system.membus.snoopFanout::0                   467037    100.00%    100.00% # Request fanout histogram (Count)
system.membus.snoopFanout::1                        0      0.00%    100.00% # Request fanout histogram (Count)
system.membus.snoopFanout::overflows                0      0.00%    100.00% # Request fanout histogram (Count)
system.membus.snoopFanout::min_value                0                       # Request fanout histogram (Count)
system.membus.snoopFanout::max_value                0                       # Request fanout histogram (Count)
system.membus.snoopFanout::total               467037                       # Request fanout histogram (Count)
system.membus.power_state.pwrStateResidencyTicks::UNDEFINED  23520114000                       # Cumulative time (in ticks) in various power states (Tick)
system.membus.reqLayer0.occupancy          2764436500                       # Layer occupancy (ticks) (Tick)
system.membus.reqLayer0.utilization               0.1                       # Layer utilization (Ratio)
system.membus.respLayer1.occupancy         2458134500                       # Layer occupancy (ticks) (Tick)
system.membus.respLayer1.utilization              0.1                       # Layer utilization (Ratio)
system.membus.snoop_filter.totRequests         929882                       # Total number of requests made to the snoop filter. (Count)
system.membus.snoop_filter.hitSingleRequests       462845                       # Number of requests hitting in the snoop filter with a single holder of the requested data. (Count)
system.membus.snoop_filter.hitMultiRequests            0                       # Number of requests hitting in the snoop filter with multiple (>1) holders of the requested data. (Count)
system.membus.snoop_filter.totSnoops                0                       # Total number of snoops made to the snoop filter. (Count)
system.membus.snoop_filter.hitSingleSnoops            0                       # Number of snoops hitting in the snoop filter with a single holder of the requested data. (Count)
system.membus.snoop_filter.hitMultiSnoops            0                       # Number of snoops hitting in the snoop filter with multiple (>1) holders of the requested data. (Count)
system.tol2bus.transDist::ReadResp             116437                       # Transaction distribution (Count)
system.tol2bus.transDist::WritebackDirty       850052                       # Transaction distribution (Count)
system.tol2bus.transDist::WritebackClean         1842                       # Transaction distribution (Count)
system.tol2bus.transDist::CleanEvict           152206                       # Transaction distribution (Count)
system.tol2bus.transDist::ReadExReq            425322                       # Transaction distribution (Count)
system.tol2bus.transDist::ReadExResp           425322                       # Transaction distribution (Count)
system.tol2bus.transDist::ReadCleanReq           2099                       # Transaction distribution (Count)
system.tol2bus.transDist::ReadSharedReq        114339                       # Transaction distribution (Count)
system.tol2bus.transDist::InvalidateReq           147                       # Transaction distribution (Count)
system.tol2bus.transDist::InvalidateResp          147                       # Transaction distribution (Count)
system.tol2bus.pktCount_system.cpu.icache.mem_side_port::system.l2.cpu_side_port         6039                       # Packet count per connected requestor and responder (Count)
system.tol2bus.pktCount_system.cpu.dcache.mem_side_port::system.l2.cpu_side_port      1618400                       # Packet count per connected requestor and responder (Count)
system.tol2bus.pktCount::total                1624439                       # Packet count per connected requestor and responder (Count)
system.tol2bus.pktSize_system.cpu.icache.mem_side_port::system.l2.cpu_side_port       252160                       # Cumulative packet size per connected requestor and responder (Byte)
system.tol2bus.pktSize_system.cpu.dcache.mem_side_port::system.l2.cpu_side_port     61802368                       # Cumulative packet size per connected requestor and responder (Byte)
system.tol2bus.pktSize::total                62054528                       # Cumulative packet size per connected requestor and responder (Byte)
system.tol2bus.snoops                          463474                       # Total snoops (Count)
system.tol2bus.snoopTraffic                  27139264                       # Total snoop traffic (Byte)
system.tol2bus.snoopFanout::samples           1005381                       # Request fanout histogram (Count)
system.tol2bus.snoopFanout::mean             0.000836                       # Request fanout histogram (Count)
system.tol2bus.snoopFanout::stdev            0.028910                       # Request fanout histogram (Count)
system.tol2bus.snoopFanout::underflows              0      0.00%      0.00% # Request fanout histogram (Count)
system.tol2bus.snoopFanout::0                 1004540     99.92%     99.92% # Request fanout histogram (Count)
system.tol2bus.snoopFanout::1                     841      0.08%    100.00% # Request fanout histogram (Count)
system.tol2bus.snoopFanout::2                       0      0.00%    100.00% # Request fanout histogram (Count)
system.tol2bus.snoopFanout::overflows               0      0.00%    100.00% # Request fanout histogram (Count)
system.tol2bus.snoopFanout::min_value               0                       # Request fanout histogram (Count)
system.tol2bus.snoopFanout::max_value               1                       # Request fanout histogram (Count)
system.tol2bus.snoopFanout::total             1005381                       # Request fanout histogram (Count)
system.tol2bus.power_state.pwrStateResidencyTicks::UNDEFINED  23520114000                       # Cumulative time (in ticks) in various power states (Tick)
system.tol2bus.reqLayer0.occupancy          969109500                       # Layer occupancy (ticks) (Tick)
system.tol2bus.reqLayer0.utilization              0.0                       # Layer utilization (Ratio)
system.tol2bus.respLayer0.occupancy           3147998                       # Layer occupancy (ticks) (Tick)
system.tol2bus.respLayer0.utilization             0.0                       # Layer utilization (Ratio)
system.tol2bus.respLayer1.occupancy         809565000                       # Layer occupancy (ticks) (Tick)
system.tol2bus.respLayer1.utilization             0.0                       # Layer utilization (Ratio)
system.tol2bus.snoop_filter.totRequests       1082533                       # Total number of requests made to the snoop filter. (Count)
system.tol2bus.snoop_filter.hitSingleRequests       540626                       # Number of requests hitting in the snoop filter with a single holder of the requested data. (Count)
system.tol2bus.snoop_filter.hitMultiRequests            1                       # Number of requests hitting in the snoop filter with multiple (>1) holders of the requested data. (Count)
system.tol2bus.snoop_filter.totSnoops             840                       # Total number of snoops made to the snoop filter. (Count)
system.tol2bus.snoop_filter.hitSingleSnoops          840                       # Number of snoops hitting in the snoop filter with a single holder of the requested data. (Count)
system.tol2bus.snoop_filter.hitMultiSnoops            0                       # Number of snoops hitting in the snoop filter with multiple (>1) holders of the requested data. (Count)
system.voltage_domain.voltage                       1                       # Voltage in Volts (Volt)
system.workload.inst.arm                            0                       # number of arm instructions executed (Count)
system.workload.inst.quiesce                        0                       # number of quiesce instructions executed (Count)

---------- End Simulation Statistics   ----------
