
---------- Begin Simulation Statistics ----------
simSeconds                                   0.070684                       # Number of seconds simulated (Second)
simTicks                                  70684203000                       # Number of ticks simulated (Tick)
finalTick                                 70684203000                       # Number of ticks from beginning of simulation (restored from checkpoints and never reset) (Tick)
simFreq                                  1000000000000                       # The number of ticks per simulated second ((Tick/Second))
hostSeconds                                    443.49                       # Real time elapsed on the host (Second)
hostTickRate                                159383126                       # The number of ticks simulated per host second (ticks/s) ((Tick/Second))
hostMemory                                     681144                       # Number of bytes of host memory used (Byte)
simInsts                                     92167347                       # Number of instructions simulated (Count)
simOps                                      104106442                       # Number of ops (including micro ops) simulated (Count)
hostInstRate                                   207825                       # Simulator instruction rate (inst/s) ((Count/Second))
hostOpRate                                     234746                       # Simulator op (including micro ops) rate (op/s) ((Count/Second))
system.clk_domain.clock                          1000                       # Clock period in ticks (Tick)
system.cpu.numCycles                        141368407                       # Number of cpu cycles simulated (Cycle)
system.cpu.numWorkItemsStarted                      0                       # Number of work items this cpu started (Count)
system.cpu.numWorkItemsCompleted                    0                       # Number of work items this cpu completed (Count)
system.cpu.instsAdded                       105307595                       # Number of instructions added to the IQ (excludes non-spec) (Count)
system.cpu.nonSpecInstsAdded                      406                       # Number of non-speculative instructions added to the IQ (Count)
system.cpu.instsIssued                      120195536                       # Number of instructions issued (Count)
system.cpu.squashedInstsIssued                  76935                       # Number of squashed instructions issued (Count)
system.cpu.squashedInstsExamined              1201558                       # Number of squashed instructions iterated over during squash; mainly for profiling (Count)
system.cpu.squashedOperandsExamined           1769894                       # Number of squashed operands that are examined and possibly removed from graph (Count)
system.cpu.squashedNonSpecRemoved                 133                       # Number of squashed non-spec instructions that were removed (Count)
system.cpu.numIssuedDist::samples           141228895                       # Number of insts issued each cycle (Count)
system.cpu.numIssuedDist::mean               0.851069                       # Number of insts issued each cycle (Count)
system.cpu.numIssuedDist::stdev              1.829344                       # Number of insts issued each cycle (Count)
system.cpu.numIssuedDist::underflows                0      0.00%      0.00% # Number of insts issued each cycle (Count)
system.cpu.numIssuedDist::0                 108203747     76.62%     76.62% # Number of insts issued each cycle (Count)
system.cpu.numIssuedDist::1                   7374011      5.22%     81.84% # Number of insts issued each cycle (Count)
system.cpu.numIssuedDist::2                   4905598      3.47%     85.31% # Number of insts issued each cycle (Count)
system.cpu.numIssuedDist::3                   2037795      1.44%     86.75% # Number of insts issued each cycle (Count)
system.cpu.numIssuedDist::4                   6839949      4.84%     91.60% # Number of insts issued each cycle (Count)
system.cpu.numIssuedDist::5                   5750717      4.07%     95.67% # Number of insts issued each cycle (Count)
system.cpu.numIssuedDist::6                   3588136      2.54%     98.21% # Number of insts issued each cycle (Count)
system.cpu.numIssuedDist::7                    976789      0.69%     98.90% # Number of insts issued each cycle (Count)
system.cpu.numIssuedDist::8                   1552153      1.10%    100.00% # Number of insts issued each cycle (Count)
system.cpu.numIssuedDist::overflows                 0      0.00%    100.00% # Number of insts issued each cycle (Count)
system.cpu.numIssuedDist::min_value                 0                       # Number of insts issued each cycle (Count)
system.cpu.numIssuedDist::max_value                 8                       # Number of insts issued each cycle (Count)
system.cpu.numIssuedDist::total             141228895                       # Number of insts issued each cycle (Count)
system.cpu.statFuBusy::No_OpClass                   0      0.00%      0.00% # attempts to use FU when none available (Count)
system.cpu.statFuBusy::IntAlu                  178351      4.20%      4.20% # attempts to use FU when none available (Count)
system.cpu.statFuBusy::IntMult                      0      0.00%      4.20% # attempts to use FU when none available (Count)
system.cpu.statFuBusy::IntDiv                    1210      0.03%      4.22% # attempts to use FU when none available (Count)
system.cpu.statFuBusy::FloatAdd                     0      0.00%      4.22% # attempts to use FU when none available (Count)
system.cpu.statFuBusy::FloatCmp                     0      0.00%      4.22% # attempts to use FU when none available (Count)
system.cpu.statFuBusy::FloatCvt                     0      0.00%      4.22% # attempts to use FU when none available (Count)
system.cpu.statFuBusy::FloatMult                    0      0.00%      4.22% # attempts to use FU when none available (Count)
system.cpu.statFuBusy::FloatMultAcc                 0      0.00%      4.22% # attempts to use FU when none available (Count)
system.cpu.statFuBusy::FloatDiv                     0      0.00%      4.22% # attempts to use FU when none available (Count)
system.cpu.statFuBusy::FloatMisc                    0      0.00%      4.22% # attempts to use FU when none available (Count)
system.cpu.statFuBusy::FloatSqrt                    0      0.00%      4.22% # attempts to use FU when none available (Count)
system.cpu.statFuBusy::SimdAdd                      0      0.00%      4.22% # attempts to use FU when none available (Count)
system.cpu.statFuBusy::SimdAddAcc                   0      0.00%      4.22% # attempts to use FU when none available (Count)
system.cpu.statFuBusy::SimdAlu                1270004     29.88%     34.11% # attempts to use FU when none available (Count)
system.cpu.statFuBusy::SimdCmp                     15      0.00%     34.11% # attempts to use FU when none available (Count)
system.cpu.statFuBusy::SimdCvt                      0      0.00%     34.11% # attempts to use FU when none available (Count)
system.cpu.statFuBusy::SimdMisc                     0      0.00%     34.11% # attempts to use FU when none available (Count)
system.cpu.statFuBusy::SimdMult                     0      0.00%     34.11% # attempts to use FU when none available (Count)
system.cpu.statFuBusy::SimdMultAcc                  0      0.00%     34.11% # attempts to use FU when none available (Count)
system.cpu.statFuBusy::SimdShift                    0      0.00%     34.11% # attempts to use FU when none available (Count)
system.cpu.statFuBusy::SimdShiftAcc                 0      0.00%     34.11% # attempts to use FU when none available (Count)
system.cpu.statFuBusy::SimdDiv                      0      0.00%     34.11% # attempts to use FU when none available (Count)
system.cpu.statFuBusy::SimdSqrt                     0      0.00%     34.11% # attempts to use FU when none available (Count)
system.cpu.statFuBusy::SimdFloatAdd                 0      0.00%     34.11% # attempts to use FU when none available (Count)
system.cpu.statFuBusy::SimdFloatAlu                 0      0.00%     34.11% # attempts to use FU when none available (Count)
system.cpu.statFuBusy::SimdFloatCmp                 0      0.00%     34.11% # attempts to use FU when none available (Count)
system.cpu.statFuBusy::SimdFloatCvt                 0      0.00%     34.11% # attempts to use FU when none available (Count)
system.cpu.statFuBusy::SimdFloatDiv                 0      0.00%     34.11% # attempts to use FU when none available (Count)
system.cpu.statFuBusy::SimdFloatMisc                0      0.00%     34.11% # attempts to use FU when none available (Count)
system.cpu.statFuBusy::SimdFloatMult                0      0.00%     34.11% # attempts to use FU when none available (Count)
system.cpu.statFuBusy::SimdFloatMultAcc             0      0.00%     34.11% # attempts to use FU when none available (Count)
system.cpu.statFuBusy::SimdFloatSqrt                0      0.00%     34.11% # attempts to use FU when none available (Count)
system.cpu.statFuBusy::SimdReduceAdd                0      0.00%     34.11% # attempts to use FU when none available (Count)
system.cpu.statFuBusy::SimdReduceAlu                0      0.00%     34.11% # attempts to use FU when none available (Count)
system.cpu.statFuBusy::SimdReduceCmp                0      0.00%     34.11% # attempts to use FU when none available (Count)
system.cpu.statFuBusy::SimdFloatReduceAdd            0      0.00%     34.11% # attempts to use FU when none available (Count)
system.cpu.statFuBusy::SimdFloatReduceCmp            0      0.00%     34.11% # attempts to use FU when none available (Count)
system.cpu.statFuBusy::SimdAes                      0      0.00%     34.11% # attempts to use FU when none available (Count)
system.cpu.statFuBusy::SimdAesMix                   0      0.00%     34.11% # attempts to use FU when none available (Count)
system.cpu.statFuBusy::SimdSha1Hash                 0      0.00%     34.11% # attempts to use FU when none available (Count)
system.cpu.statFuBusy::SimdSha1Hash2                0      0.00%     34.11% # attempts to use FU when none available (Count)
system.cpu.statFuBusy::SimdSha256Hash               0      0.00%     34.11% # attempts to use FU when none available (Count)
system.cpu.statFuBusy::SimdSha256Hash2              0      0.00%     34.11% # attempts to use FU when none available (Count)
system.cpu.statFuBusy::SimdShaSigma2                0      0.00%     34.11% # attempts to use FU when none available (Count)
system.cpu.statFuBusy::SimdShaSigma3                0      0.00%     34.11% # attempts to use FU when none available (Count)
system.cpu.statFuBusy::SimdPredAlu                  0      0.00%     34.11% # attempts to use FU when none available (Count)
system.cpu.statFuBusy::MemRead                2785672     65.54%     99.65% # attempts to use FU when none available (Count)
system.cpu.statFuBusy::MemWrite                 14911      0.35%    100.00% # attempts to use FU when none available (Count)
system.cpu.statFuBusy::FloatMemRead                 0      0.00%    100.00% # attempts to use FU when none available (Count)
system.cpu.statFuBusy::FloatMemWrite                0      0.00%    100.00% # attempts to use FU when none available (Count)
system.cpu.statFuBusy::IprAccess                    0      0.00%    100.00% # attempts to use FU when none available (Count)
system.cpu.statFuBusy::InstPrefetch                 0      0.00%    100.00% # attempts to use FU when none available (Count)
system.cpu.statIssuedInstType_0::No_OpClass      4668649      3.88%      3.88% # Number of instructions issued per FU type, per thread (Count)
system.cpu.statIssuedInstType_0::IntAlu      47943796     39.89%     43.77% # Number of instructions issued per FU type, per thread (Count)
system.cpu.statIssuedInstType_0::IntMult         7643      0.01%     43.78% # Number of instructions issued per FU type, per thread (Count)
system.cpu.statIssuedInstType_0::IntDiv          2714      0.00%     43.78% # Number of instructions issued per FU type, per thread (Count)
system.cpu.statIssuedInstType_0::FloatAdd            0      0.00%     43.78% # Number of instructions issued per FU type, per thread (Count)
system.cpu.statIssuedInstType_0::FloatCmp            0      0.00%     43.78% # Number of instructions issued per FU type, per thread (Count)
system.cpu.statIssuedInstType_0::FloatCvt            0      0.00%     43.78% # Number of instructions issued per FU type, per thread (Count)
system.cpu.statIssuedInstType_0::FloatMult            0      0.00%     43.78% # Number of instructions issued per FU type, per thread (Count)
system.cpu.statIssuedInstType_0::FloatMultAcc            0      0.00%     43.78% # Number of instructions issued per FU type, per thread (Count)
system.cpu.statIssuedInstType_0::FloatDiv            0      0.00%     43.78% # Number of instructions issued per FU type, per thread (Count)
system.cpu.statIssuedInstType_0::FloatMisc            2      0.00%     43.78% # Number of instructions issued per FU type, per thread (Count)
system.cpu.statIssuedInstType_0::FloatSqrt            0      0.00%     43.78% # Number of instructions issued per FU type, per thread (Count)
system.cpu.statIssuedInstType_0::SimdAdd      9332411      7.76%     51.55% # Number of instructions issued per FU type, per thread (Count)
system.cpu.statIssuedInstType_0::SimdAddAcc            0      0.00%     51.55% # Number of instructions issued per FU type, per thread (Count)
system.cpu.statIssuedInstType_0::SimdAlu     18668048     15.53%     67.08% # Number of instructions issued per FU type, per thread (Count)
system.cpu.statIssuedInstType_0::SimdCmp          117      0.00%     67.08% # Number of instructions issued per FU type, per thread (Count)
system.cpu.statIssuedInstType_0::SimdCvt            0      0.00%     67.08% # Number of instructions issued per FU type, per thread (Count)
system.cpu.statIssuedInstType_0::SimdMisc      9332433      7.76%     74.84% # Number of instructions issued per FU type, per thread (Count)
system.cpu.statIssuedInstType_0::SimdMult            0      0.00%     74.84% # Number of instructions issued per FU type, per thread (Count)
system.cpu.statIssuedInstType_0::SimdMultAcc            0      0.00%     74.84% # Number of instructions issued per FU type, per thread (Count)
system.cpu.statIssuedInstType_0::SimdShift            0      0.00%     74.84% # Number of instructions issued per FU type, per thread (Count)
system.cpu.statIssuedInstType_0::SimdShiftAcc            0      0.00%     74.84% # Number of instructions issued per FU type, per thread (Count)
system.cpu.statIssuedInstType_0::SimdDiv            0      0.00%     74.84% # Number of instructions issued per FU type, per thread (Count)
system.cpu.statIssuedInstType_0::SimdSqrt            0      0.00%     74.84% # Number of instructions issued per FU type, per thread (Count)
system.cpu.statIssuedInstType_0::SimdFloatAdd            0      0.00%     74.84% # Number of instructions issued per FU type, per thread (Count)
system.cpu.statIssuedInstType_0::SimdFloatAlu            0      0.00%     74.84% # Number of instructions issued per FU type, per thread (Count)
system.cpu.statIssuedInstType_0::SimdFloatCmp            0      0.00%     74.84% # Number of instructions issued per FU type, per thread (Count)
system.cpu.statIssuedInstType_0::SimdFloatCvt            0      0.00%     74.84% # Number of instructions issued per FU type, per thread (Count)
system.cpu.statIssuedInstType_0::SimdFloatDiv            0      0.00%     74.84% # Number of instructions issued per FU type, per thread (Count)
system.cpu.statIssuedInstType_0::SimdFloatMisc            0      0.00%     74.84% # Number of instructions issued per FU type, per thread (Count)
system.cpu.statIssuedInstType_0::SimdFloatMult            0      0.00%     74.84% # Number of instructions issued per FU type, per thread (Count)
system.cpu.statIssuedInstType_0::SimdFloatMultAcc            0      0.00%     74.84% # Number of instructions issued per FU type, per thread (Count)
system.cpu.statIssuedInstType_0::SimdFloatSqrt            0      0.00%     74.84% # Number of instructions issued per FU type, per thread (Count)
system.cpu.statIssuedInstType_0::SimdReduceAdd            0      0.00%     74.84% # Number of instructions issued per FU type, per thread (Count)
system.cpu.statIssuedInstType_0::SimdReduceAlu            0      0.00%     74.84% # Number of instructions issued per FU type, per thread (Count)
system.cpu.statIssuedInstType_0::SimdReduceCmp            0      0.00%     74.84% # Number of instructions issued per FU type, per thread (Count)
system.cpu.statIssuedInstType_0::SimdFloatReduceAdd            0      0.00%     74.84% # Number of instructions issued per FU type, per thread (Count)
system.cpu.statIssuedInstType_0::SimdFloatReduceCmp            0      0.00%     74.84% # Number of instructions issued per FU type, per thread (Count)
system.cpu.statIssuedInstType_0::SimdAes            0      0.00%     74.84% # Number of instructions issued per FU type, per thread (Count)
system.cpu.statIssuedInstType_0::SimdAesMix            0      0.00%     74.84% # Number of instructions issued per FU type, per thread (Count)
system.cpu.statIssuedInstType_0::SimdSha1Hash            0      0.00%     74.84% # Number of instructions issued per FU type, per thread (Count)
system.cpu.statIssuedInstType_0::SimdSha1Hash2            0      0.00%     74.84% # Number of instructions issued per FU type, per thread (Count)
system.cpu.statIssuedInstType_0::SimdSha256Hash            0      0.00%     74.84% # Number of instructions issued per FU type, per thread (Count)
system.cpu.statIssuedInstType_0::SimdSha256Hash2            0      0.00%     74.84% # Number of instructions issued per FU type, per thread (Count)
system.cpu.statIssuedInstType_0::SimdShaSigma2            0      0.00%     74.84% # Number of instructions issued per FU type, per thread (Count)
system.cpu.statIssuedInstType_0::SimdShaSigma3            0      0.00%     74.84% # Number of instructions issued per FU type, per thread (Count)
system.cpu.statIssuedInstType_0::SimdPredAlu            0      0.00%     74.84% # Number of instructions issued per FU type, per thread (Count)
system.cpu.statIssuedInstType_0::MemRead     27686526     23.03%     97.88% # Number of instructions issued per FU type, per thread (Count)
system.cpu.statIssuedInstType_0::MemWrite      2553197      2.12%    100.00% # Number of instructions issued per FU type, per thread (Count)
system.cpu.statIssuedInstType_0::FloatMemRead            0      0.00%    100.00% # Number of instructions issued per FU type, per thread (Count)
system.cpu.statIssuedInstType_0::FloatMemWrite            0      0.00%    100.00% # Number of instructions issued per FU type, per thread (Count)
system.cpu.statIssuedInstType_0::IprAccess            0      0.00%    100.00% # Number of instructions issued per FU type, per thread (Count)
system.cpu.statIssuedInstType_0::InstPrefetch            0      0.00%    100.00% # Number of instructions issued per FU type, per thread (Count)
system.cpu.statIssuedInstType_0::total      120195536                       # Number of instructions issued per FU type, per thread (Count)
system.cpu.issueRate                         0.850229                       # Inst issue rate ((Count/Cycle))
system.cpu.fuBusy                             4250163                       # FU busy when requested (Count)
system.cpu.fuBusyRate                        0.035360                       # FU busy rate (busy events/executed inst) ((Count/Count))
system.cpu.intInstQueueReads                254350448                       # Number of integer instruction queue reads (Count)
system.cpu.intInstQueueWrites                54453439                       # Number of integer instruction queue writes (Count)
system.cpu.intInstQueueWakeupAccesses        53217046                       # Number of integer instruction queue wakeup accesses (Count)
system.cpu.fpInstQueueReads                         0                       # Number of floating instruction queue reads (Count)
system.cpu.fpInstQueueWrites                        0                       # Number of floating instruction queue writes (Count)
system.cpu.fpInstQueueWakeupAccesses                0                       # Number of floating instruction queue wakeup accesses (Count)
system.cpu.vecInstQueueReads                131596617                       # Number of vector instruction queue reads (Count)
system.cpu.vecInstQueueWrites                52056305                       # Number of vector instruction queue writes (Count)
system.cpu.vecInstQueueWakeupAccesses        51340473                       # Number of vector instruction queue wakeup accesses (Count)
system.cpu.intAluAccesses                    57322289                       # Number of integer alu accesses (Count)
system.cpu.fpAluAccesses                            0                       # Number of floating point alu accesses (Count)
system.cpu.vecAluAccesses                    62454761                       # Number of vector alu accesses (Count)
system.cpu.numInsts                         120063871                       # Number of executed instructions (Count)
system.cpu.numLoadInsts                      27635186                       # Number of load instructions executed (Count)
system.cpu.numSquashedInsts                    131665                       # Number of squashed instructions skipped in execute (Count)
system.cpu.numSwp                                   0                       # Number of swp insts executed (Count)
system.cpu.numNop                                1318                       # Number of nop insts executed (Count)
system.cpu.numRefs                           30186816                       # Number of memory reference insts executed (Count)
system.cpu.numBranches                        5821865                       # Number of branches executed (Count)
system.cpu.numStoreInsts                      2551630                       # Number of stores executed (Count)
system.cpu.numRate                           0.849298                       # Inst execution rate ((Count/Cycle))
system.cpu.timesIdled                            1458                       # Number of times that the entire CPU went into an idle state and unscheduled itself (Count)
system.cpu.idleCycles                          139512                       # Total number of cycles that the CPU has spent unscheduled due to idling (Cycle)
system.cpu.committedInsts                    92167347                       # Number of Instructions Simulated (Count)
system.cpu.committedOps                     104106442                       # Number of Ops (including micro ops) Simulated (Count)
system.cpu.cpi                               1.533823                       # CPI: Cycles Per Instruction ((Cycle/Count))
system.cpu.totalCpi                          1.533823                       # CPI: Total CPI of All Threads ((Cycle/Count))
system.cpu.ipc                               0.651966                       # IPC: Instructions Per Cycle ((Count/Cycle))
system.cpu.totalIpc                          0.651966                       # IPC: Total IPC of All Threads ((Count/Cycle))
system.cpu.intRegfileReads                  109986161                       # Number of integer regfile reads (Count)
system.cpu.intRegfileWrites                  46124786                       # Number of integer regfile writes (Count)
system.cpu.vecRegfileReads                  116688075                       # number of vector regfile reads (Count)
system.cpu.ccRegfileReads                    24379503                       # number of cc regfile reads (Count)
system.cpu.ccRegfileWrites                   24422796                       # number of cc regfile writes (Count)
system.cpu.miscRegfileReads                 122534101                       # number of misc regfile reads (Count)
system.cpu.miscRegfileWrites                      213                       # number of misc regfile writes (Count)
system.cpu.MemDepUnit__0.insertedLoads       12337361                       # Number of loads inserted to the mem dependence unit. (Count)
system.cpu.MemDepUnit__0.insertedStores       2560505                       # Number of stores inserted to the mem dependence unit. (Count)
system.cpu.MemDepUnit__0.conflictingLoads        10099                       # Number of conflicting loads. (Count)
system.cpu.MemDepUnit__0.conflictingStores        13582                       # Number of conflicting stores. (Count)
system.cpu.MemDepUnit__1.insertedLoads              0                       # Number of loads inserted to the mem dependence unit. (Count)
system.cpu.MemDepUnit__1.insertedStores             0                       # Number of stores inserted to the mem dependence unit. (Count)
system.cpu.MemDepUnit__1.conflictingLoads            0                       # Number of conflicting loads. (Count)
system.cpu.MemDepUnit__1.conflictingStores            0                       # Number of conflicting stores. (Count)
system.cpu.MemDepUnit__2.insertedLoads              0                       # Number of loads inserted to the mem dependence unit. (Count)
system.cpu.MemDepUnit__2.insertedStores             0                       # Number of stores inserted to the mem dependence unit. (Count)
system.cpu.MemDepUnit__2.conflictingLoads            0                       # Number of conflicting loads. (Count)
system.cpu.MemDepUnit__2.conflictingStores            0                       # Number of conflicting stores. (Count)
system.cpu.MemDepUnit__3.insertedLoads              0                       # Number of loads inserted to the mem dependence unit. (Count)
system.cpu.MemDepUnit__3.insertedStores             0                       # Number of stores inserted to the mem dependence unit. (Count)
system.cpu.MemDepUnit__3.conflictingLoads            0                       # Number of conflicting loads. (Count)
system.cpu.MemDepUnit__3.conflictingStores            0                       # Number of conflicting stores. (Count)
system.cpu.branchPred.lookups                 6142181                       # Number of BP lookups (Count)
system.cpu.branchPred.condPredicted           5973090                       # Number of conditional branches predicted (Count)
system.cpu.branchPred.condIncorrect             79728                       # Number of conditional branches incorrect (Count)
system.cpu.branchPred.BTBLookups              3309558                       # Number of BTB lookups (Count)
system.cpu.branchPred.BTBUpdates                53455                       # Number of BTB updates (Count)
system.cpu.branchPred.BTBHits                 3306728                       # Number of BTB hits (Count)
system.cpu.branchPred.BTBHitRatio            0.999145                       # BTB Hit Ratio (Ratio)
system.cpu.branchPred.RASUsed                   17531                       # Number of times the RAS was used to get a target. (Count)
system.cpu.branchPred.RASIncorrect                 40                       # Number of incorrect RAS predictions. (Count)
system.cpu.branchPred.indirectLookups            6672                       # Number of indirect predictor lookups. (Count)
system.cpu.branchPred.indirectHits               1334                       # Number of indirect target hits. (Count)
system.cpu.branchPred.indirectMisses             5338                       # Number of indirect misses. (Count)
system.cpu.branchPred.indirectMispredicted          668                       # Number of mispredicted indirect branches. (Count)
system.cpu.commit.commitSquashedInsts         1193915                       # The number of squashed insts skipped by commit (Count)
system.cpu.commit.commitNonSpecStalls             273                       # The number of times commit has been forced to stall to communicate backwards (Count)
system.cpu.commit.branchMispredicts             79611                       # The number of times a branch was mispredicted (Count)
system.cpu.commit.numCommittedDist::samples    141036051                       # Number of insts commited each cycle (Count)
system.cpu.commit.numCommittedDist::mean     0.738161                       # Number of insts commited each cycle (Count)
system.cpu.commit.numCommittedDist::stdev     2.166439                       # Number of insts commited each cycle (Count)
system.cpu.commit.numCommittedDist::underflows            0      0.00%      0.00% # Number of insts commited each cycle (Count)
system.cpu.commit.numCommittedDist::0       121704266     86.29%     86.29% # Number of insts commited each cycle (Count)
system.cpu.commit.numCommittedDist::1         3922582      2.78%     89.07% # Number of insts commited each cycle (Count)
system.cpu.commit.numCommittedDist::2         2614649      1.85%     90.93% # Number of insts commited each cycle (Count)
system.cpu.commit.numCommittedDist::3           62908      0.04%     90.97% # Number of insts commited each cycle (Count)
system.cpu.commit.numCommittedDist::4         1261592      0.89%     91.87% # Number of insts commited each cycle (Count)
system.cpu.commit.numCommittedDist::5           23164      0.02%     91.88% # Number of insts commited each cycle (Count)
system.cpu.commit.numCommittedDist::6           20176      0.01%     91.90% # Number of insts commited each cycle (Count)
system.cpu.commit.numCommittedDist::7         1930200      1.37%     93.27% # Number of insts commited each cycle (Count)
system.cpu.commit.numCommittedDist::8         9496514      6.73%    100.00% # Number of insts commited each cycle (Count)
system.cpu.commit.numCommittedDist::overflows            0      0.00%    100.00% # Number of insts commited each cycle (Count)
system.cpu.commit.numCommittedDist::min_value            0                       # Number of insts commited each cycle (Count)
system.cpu.commit.numCommittedDist::max_value            8                       # Number of insts commited each cycle (Count)
system.cpu.commit.numCommittedDist::total    141036051                       # Number of insts commited each cycle (Count)
system.cpu.commit.instsCommitted             92168265                       # Number of instructions committed (Count)
system.cpu.commit.opsCommitted              104107360                       # Number of ops (including micro ops) committed (Count)
system.cpu.commit.memRefs                    14603899                       # Number of memory references committed (Count)
system.cpu.commit.loads                      12082166                       # Number of loads committed (Count)
system.cpu.commit.amos                            106                       # Number of atomic instructions committed (Count)
system.cpu.commit.membars                         114                       # Number of memory barriers committed (Count)
system.cpu.commit.branches                    5762609                       # Number of branches committed (Count)
system.cpu.commit.vectorInstructions         51332607                       # Number of committed Vector instructions. (Count)
system.cpu.commit.floating                          0                       # Number of committed floating point instructions. (Count)
system.cpu.commit.integer                    65895597                       # Number of committed integer instructions. (Count)
system.cpu.commit.functionCalls                 11005                       # Number of function calls committed. (Count)
system.cpu.commit.committedInstType_0::No_OpClass      4667329      4.48%      4.48% # Class of committed instruction (Count)
system.cpu.commit.committedInstType_0::IntAlu     47498077     45.62%     50.11% # Class of committed instruction (Count)
system.cpu.commit.committedInstType_0::IntMult         7068      0.01%     50.11% # Class of committed instruction (Count)
system.cpu.commit.committedInstType_0::IntDiv         2567      0.00%     50.12% # Class of committed instruction (Count)
system.cpu.commit.committedInstType_0::FloatAdd            0      0.00%     50.12% # Class of committed instruction (Count)
system.cpu.commit.committedInstType_0::FloatCmp            0      0.00%     50.12% # Class of committed instruction (Count)
system.cpu.commit.committedInstType_0::FloatCvt            0      0.00%     50.12% # Class of committed instruction (Count)
system.cpu.commit.committedInstType_0::FloatMult            0      0.00%     50.12% # Class of committed instruction (Count)
system.cpu.commit.committedInstType_0::FloatMultAcc            0      0.00%     50.12% # Class of committed instruction (Count)
system.cpu.commit.committedInstType_0::FloatDiv            0      0.00%     50.12% # Class of committed instruction (Count)
system.cpu.commit.committedInstType_0::FloatMisc            2      0.00%     50.12% # Class of committed instruction (Count)
system.cpu.commit.committedInstType_0::FloatSqrt            0      0.00%     50.12% # Class of committed instruction (Count)
system.cpu.commit.committedInstType_0::SimdAdd      9331275      8.96%     59.08% # Class of committed instruction (Count)
system.cpu.commit.committedInstType_0::SimdAddAcc            0      0.00%     59.08% # Class of committed instruction (Count)
system.cpu.commit.committedInstType_0::SimdAlu     18665751     17.93%     77.01% # Class of committed instruction (Count)
system.cpu.commit.committedInstType_0::SimdCmp           93      0.00%     77.01% # Class of committed instruction (Count)
system.cpu.commit.committedInstType_0::SimdCvt            0      0.00%     77.01% # Class of committed instruction (Count)
system.cpu.commit.committedInstType_0::SimdMisc      9331299      8.96%     85.97% # Class of committed instruction (Count)
system.cpu.commit.committedInstType_0::SimdMult            0      0.00%     85.97% # Class of committed instruction (Count)
system.cpu.commit.committedInstType_0::SimdMultAcc            0      0.00%     85.97% # Class of committed instruction (Count)
system.cpu.commit.committedInstType_0::SimdShift            0      0.00%     85.97% # Class of committed instruction (Count)
system.cpu.commit.committedInstType_0::SimdShiftAcc            0      0.00%     85.97% # Class of committed instruction (Count)
system.cpu.commit.committedInstType_0::SimdDiv            0      0.00%     85.97% # Class of committed instruction (Count)
system.cpu.commit.committedInstType_0::SimdSqrt            0      0.00%     85.97% # Class of committed instruction (Count)
system.cpu.commit.committedInstType_0::SimdFloatAdd            0      0.00%     85.97% # Class of committed instruction (Count)
system.cpu.commit.committedInstType_0::SimdFloatAlu            0      0.00%     85.97% # Class of committed instruction (Count)
system.cpu.commit.committedInstType_0::SimdFloatCmp            0      0.00%     85.97% # Class of committed instruction (Count)
system.cpu.commit.committedInstType_0::SimdFloatCvt            0      0.00%     85.97% # Class of committed instruction (Count)
system.cpu.commit.committedInstType_0::SimdFloatDiv            0      0.00%     85.97% # Class of committed instruction (Count)
system.cpu.commit.committedInstType_0::SimdFloatMisc            0      0.00%     85.97% # Class of committed instruction (Count)
system.cpu.commit.committedInstType_0::SimdFloatMult            0      0.00%     85.97% # Class of committed instruction (Count)
system.cpu.commit.committedInstType_0::SimdFloatMultAcc            0      0.00%     85.97% # Class of committed instruction (Count)
system.cpu.commit.committedInstType_0::SimdFloatSqrt            0      0.00%     85.97% # Class of committed instruction (Count)
system.cpu.commit.committedInstType_0::SimdReduceAdd            0      0.00%     85.97% # Class of committed instruction (Count)
system.cpu.commit.committedInstType_0::SimdReduceAlu            0      0.00%     85.97% # Class of committed instruction (Count)
system.cpu.commit.committedInstType_0::SimdReduceCmp            0      0.00%     85.97% # Class of committed instruction (Count)
system.cpu.commit.committedInstType_0::SimdFloatReduceAdd            0      0.00%     85.97% # Class of committed instruction (Count)
system.cpu.commit.committedInstType_0::SimdFloatReduceCmp            0      0.00%     85.97% # Class of committed instruction (Count)
system.cpu.commit.committedInstType_0::SimdAes            0      0.00%     85.97% # Class of committed instruction (Count)
system.cpu.commit.committedInstType_0::SimdAesMix            0      0.00%     85.97% # Class of committed instruction (Count)
system.cpu.commit.committedInstType_0::SimdSha1Hash            0      0.00%     85.97% # Class of committed instruction (Count)
system.cpu.commit.committedInstType_0::SimdSha1Hash2            0      0.00%     85.97% # Class of committed instruction (Count)
system.cpu.commit.committedInstType_0::SimdSha256Hash            0      0.00%     85.97% # Class of committed instruction (Count)
system.cpu.commit.committedInstType_0::SimdSha256Hash2            0      0.00%     85.97% # Class of committed instruction (Count)
system.cpu.commit.committedInstType_0::SimdShaSigma2            0      0.00%     85.97% # Class of committed instruction (Count)
system.cpu.commit.committedInstType_0::SimdShaSigma3            0      0.00%     85.97% # Class of committed instruction (Count)
system.cpu.commit.committedInstType_0::SimdPredAlu            0      0.00%     85.97% # Class of committed instruction (Count)
system.cpu.commit.committedInstType_0::MemRead     12082166     11.61%     97.58% # Class of committed instruction (Count)
system.cpu.commit.committedInstType_0::MemWrite      2521733      2.42%    100.00% # Class of committed instruction (Count)
system.cpu.commit.committedInstType_0::FloatMemRead            0      0.00%    100.00% # Class of committed instruction (Count)
system.cpu.commit.committedInstType_0::FloatMemWrite            0      0.00%    100.00% # Class of committed instruction (Count)
system.cpu.commit.committedInstType_0::IprAccess            0      0.00%    100.00% # Class of committed instruction (Count)
system.cpu.commit.committedInstType_0::InstPrefetch            0      0.00%    100.00% # Class of committed instruction (Count)
system.cpu.commit.committedInstType_0::total    104107360                       # Class of committed instruction (Count)
system.cpu.commit.commitEligibleSamples       9496514                       # number cycles where commit BW limit reached (Cycle)
system.cpu.dcache.demandHits::cpu.data        8869058                       # number of demand (read+write) hits (Count)
system.cpu.dcache.demandHits::total           8869058                       # number of demand (read+write) hits (Count)
system.cpu.dcache.overallHits::cpu.data       8869058                       # number of overall hits (Count)
system.cpu.dcache.overallHits::total          8869058                       # number of overall hits (Count)
system.cpu.dcache.demandMisses::cpu.data      5819545                       # number of demand (read+write) misses (Count)
system.cpu.dcache.demandMisses::total         5819545                       # number of demand (read+write) misses (Count)
system.cpu.dcache.overallMisses::cpu.data      5819545                       # number of overall misses (Count)
system.cpu.dcache.overallMisses::total        5819545                       # number of overall misses (Count)
system.cpu.dcache.demandMissLatency::cpu.data 329803606488                       # number of demand (read+write) miss ticks (Tick)
system.cpu.dcache.demandMissLatency::total 329803606488                       # number of demand (read+write) miss ticks (Tick)
system.cpu.dcache.overallMissLatency::cpu.data 329803606488                       # number of overall miss ticks (Tick)
system.cpu.dcache.overallMissLatency::total 329803606488                       # number of overall miss ticks (Tick)
system.cpu.dcache.demandAccesses::cpu.data     14688603                       # number of demand (read+write) accesses (Count)
system.cpu.dcache.demandAccesses::total      14688603                       # number of demand (read+write) accesses (Count)
system.cpu.dcache.overallAccesses::cpu.data     14688603                       # number of overall (read+write) accesses (Count)
system.cpu.dcache.overallAccesses::total     14688603                       # number of overall (read+write) accesses (Count)
system.cpu.dcache.demandMissRate::cpu.data     0.396195                       # miss rate for demand accesses (Ratio)
system.cpu.dcache.demandMissRate::total      0.396195                       # miss rate for demand accesses (Ratio)
system.cpu.dcache.overallMissRate::cpu.data     0.396195                       # miss rate for overall accesses (Ratio)
system.cpu.dcache.overallMissRate::total     0.396195                       # miss rate for overall accesses (Ratio)
system.cpu.dcache.demandAvgMissLatency::cpu.data 56671.716859                       # average overall miss latency in ticks ((Tick/Count))
system.cpu.dcache.demandAvgMissLatency::total 56671.716859                       # average overall miss latency in ticks ((Tick/Count))
system.cpu.dcache.overallAvgMissLatency::cpu.data 56671.716859                       # average overall miss latency ((Tick/Count))
system.cpu.dcache.overallAvgMissLatency::total 56671.716859                       # average overall miss latency ((Tick/Count))
system.cpu.dcache.blockedCycles::no_mshrs    112074467                       # number of cycles access was blocked (Cycle)
system.cpu.dcache.blockedCycles::no_targets          480                       # number of cycles access was blocked (Cycle)
system.cpu.dcache.blockedCauses::no_mshrs      3066647                       # number of times access was blocked (Count)
system.cpu.dcache.blockedCauses::no_targets            9                       # number of times access was blocked (Count)
system.cpu.dcache.avgBlocked::no_mshrs      36.546256                       # average number of cycles each access was blocked ((Cycle/Count))
system.cpu.dcache.avgBlocked::no_targets    53.333333                       # average number of cycles each access was blocked ((Cycle/Count))
system.cpu.dcache.writebacks::writebacks      2336246                       # number of writebacks (Count)
system.cpu.dcache.writebacks::total           2336246                       # number of writebacks (Count)
system.cpu.dcache.demandMshrHits::cpu.data      2269261                       # number of demand (read+write) MSHR hits (Count)
system.cpu.dcache.demandMshrHits::total       2269261                       # number of demand (read+write) MSHR hits (Count)
system.cpu.dcache.overallMshrHits::cpu.data      2269261                       # number of overall MSHR hits (Count)
system.cpu.dcache.overallMshrHits::total      2269261                       # number of overall MSHR hits (Count)
system.cpu.dcache.demandMshrMisses::cpu.data      3550284                       # number of demand (read+write) MSHR misses (Count)
system.cpu.dcache.demandMshrMisses::total      3550284                       # number of demand (read+write) MSHR misses (Count)
system.cpu.dcache.overallMshrMisses::cpu.data      3550284                       # number of overall MSHR misses (Count)
system.cpu.dcache.overallMshrMisses::total      3550284                       # number of overall MSHR misses (Count)
system.cpu.dcache.demandMshrMissLatency::cpu.data 263112375698                       # number of demand (read+write) MSHR miss ticks (Tick)
system.cpu.dcache.demandMshrMissLatency::total 263112375698                       # number of demand (read+write) MSHR miss ticks (Tick)
system.cpu.dcache.overallMshrMissLatency::cpu.data 263112375698                       # number of overall MSHR miss ticks (Tick)
system.cpu.dcache.overallMshrMissLatency::total 263112375698                       # number of overall MSHR miss ticks (Tick)
system.cpu.dcache.demandMshrMissRate::cpu.data     0.241703                       # mshr miss ratio for demand accesses (Ratio)
system.cpu.dcache.demandMshrMissRate::total     0.241703                       # mshr miss ratio for demand accesses (Ratio)
system.cpu.dcache.overallMshrMissRate::cpu.data     0.241703                       # mshr miss ratio for overall accesses (Ratio)
system.cpu.dcache.overallMshrMissRate::total     0.241703                       # mshr miss ratio for overall accesses (Ratio)
system.cpu.dcache.demandAvgMshrMissLatency::cpu.data 74110.233350                       # average overall mshr miss latency ((Tick/Count))
system.cpu.dcache.demandAvgMshrMissLatency::total 74110.233350                       # average overall mshr miss latency ((Tick/Count))
system.cpu.dcache.overallAvgMshrMissLatency::cpu.data 74110.233350                       # average overall mshr miss latency ((Tick/Count))
system.cpu.dcache.overallAvgMshrMissLatency::total 74110.233350                       # average overall mshr miss latency ((Tick/Count))
system.cpu.dcache.replacements                3549266                       # number of replacements (Count)
system.cpu.dcache.ReadReq.hits::cpu.data      6353131                       # number of ReadReq hits (Count)
system.cpu.dcache.ReadReq.hits::total         6353131                       # number of ReadReq hits (Count)
system.cpu.dcache.ReadReq.misses::cpu.data      5813831                       # number of ReadReq misses (Count)
system.cpu.dcache.ReadReq.misses::total       5813831                       # number of ReadReq misses (Count)
system.cpu.dcache.ReadReq.missLatency::cpu.data 329473472000                       # number of ReadReq miss ticks (Tick)
system.cpu.dcache.ReadReq.missLatency::total 329473472000                       # number of ReadReq miss ticks (Tick)
system.cpu.dcache.ReadReq.accesses::cpu.data     12166962                       # number of ReadReq accesses(hits+misses) (Count)
system.cpu.dcache.ReadReq.accesses::total     12166962                       # number of ReadReq accesses(hits+misses) (Count)
system.cpu.dcache.ReadReq.missRate::cpu.data     0.477838                       # miss rate for ReadReq accesses (Ratio)
system.cpu.dcache.ReadReq.missRate::total     0.477838                       # miss rate for ReadReq accesses (Ratio)
system.cpu.dcache.ReadReq.avgMissLatency::cpu.data 56670.631121                       # average ReadReq miss latency ((Tick/Count))
system.cpu.dcache.ReadReq.avgMissLatency::total 56670.631121                       # average ReadReq miss latency ((Tick/Count))
system.cpu.dcache.ReadReq.mshrHits::cpu.data      2265805                       # number of ReadReq MSHR hits (Count)
system.cpu.dcache.ReadReq.mshrHits::total      2265805                       # number of ReadReq MSHR hits (Count)
system.cpu.dcache.ReadReq.mshrMisses::cpu.data      3548026                       # number of ReadReq MSHR misses (Count)
system.cpu.dcache.ReadReq.mshrMisses::total      3548026                       # number of ReadReq MSHR misses (Count)
system.cpu.dcache.ReadReq.mshrMissLatency::cpu.data 262979742000                       # number of ReadReq MSHR miss ticks (Tick)
system.cpu.dcache.ReadReq.mshrMissLatency::total 262979742000                       # number of ReadReq MSHR miss ticks (Tick)
system.cpu.dcache.ReadReq.mshrMissRate::cpu.data     0.291611                       # mshr miss rate for ReadReq accesses (Ratio)
system.cpu.dcache.ReadReq.mshrMissRate::total     0.291611                       # mshr miss rate for ReadReq accesses (Ratio)
system.cpu.dcache.ReadReq.avgMshrMissLatency::cpu.data 74120.015468                       # average ReadReq mshr miss latency ((Tick/Count))
system.cpu.dcache.ReadReq.avgMshrMissLatency::total 74120.015468                       # average ReadReq mshr miss latency ((Tick/Count))
system.cpu.dcache.SwapReq.hits::cpu.data          100                       # number of SwapReq hits (Count)
system.cpu.dcache.SwapReq.hits::total             100                       # number of SwapReq hits (Count)
system.cpu.dcache.SwapReq.misses::cpu.data            6                       # number of SwapReq misses (Count)
system.cpu.dcache.SwapReq.misses::total             6                       # number of SwapReq misses (Count)
system.cpu.dcache.SwapReq.missLatency::cpu.data       345000                       # number of SwapReq miss ticks (Tick)
system.cpu.dcache.SwapReq.missLatency::total       345000                       # number of SwapReq miss ticks (Tick)
system.cpu.dcache.SwapReq.accesses::cpu.data          106                       # number of SwapReq accesses(hits+misses) (Count)
system.cpu.dcache.SwapReq.accesses::total          106                       # number of SwapReq accesses(hits+misses) (Count)
system.cpu.dcache.SwapReq.missRate::cpu.data     0.056604                       # miss rate for SwapReq accesses (Ratio)
system.cpu.dcache.SwapReq.missRate::total     0.056604                       # miss rate for SwapReq accesses (Ratio)
system.cpu.dcache.SwapReq.avgMissLatency::cpu.data        57500                       # average SwapReq miss latency ((Tick/Count))
system.cpu.dcache.SwapReq.avgMissLatency::total        57500                       # average SwapReq miss latency ((Tick/Count))
system.cpu.dcache.SwapReq.mshrMisses::cpu.data            6                       # number of SwapReq MSHR misses (Count)
system.cpu.dcache.SwapReq.mshrMisses::total            6                       # number of SwapReq MSHR misses (Count)
system.cpu.dcache.SwapReq.mshrMissLatency::cpu.data       339000                       # number of SwapReq MSHR miss ticks (Tick)
system.cpu.dcache.SwapReq.mshrMissLatency::total       339000                       # number of SwapReq MSHR miss ticks (Tick)
system.cpu.dcache.SwapReq.mshrMissRate::cpu.data     0.056604                       # mshr miss rate for SwapReq accesses (Ratio)
system.cpu.dcache.SwapReq.mshrMissRate::total     0.056604                       # mshr miss rate for SwapReq accesses (Ratio)
system.cpu.dcache.SwapReq.avgMshrMissLatency::cpu.data        56500                       # average SwapReq mshr miss latency ((Tick/Count))
system.cpu.dcache.SwapReq.avgMshrMissLatency::total        56500                       # average SwapReq mshr miss latency ((Tick/Count))
system.cpu.dcache.WriteLineReq.misses::cpu.data          131                       # number of WriteLineReq misses (Count)
system.cpu.dcache.WriteLineReq.misses::total          131                       # number of WriteLineReq misses (Count)
system.cpu.dcache.WriteLineReq.missLatency::cpu.data      4173908                       # number of WriteLineReq miss ticks (Tick)
system.cpu.dcache.WriteLineReq.missLatency::total      4173908                       # number of WriteLineReq miss ticks (Tick)
system.cpu.dcache.WriteLineReq.accesses::cpu.data          131                       # number of WriteLineReq accesses(hits+misses) (Count)
system.cpu.dcache.WriteLineReq.accesses::total          131                       # number of WriteLineReq accesses(hits+misses) (Count)
system.cpu.dcache.WriteLineReq.missRate::cpu.data            1                       # miss rate for WriteLineReq accesses (Ratio)
system.cpu.dcache.WriteLineReq.missRate::total            1                       # miss rate for WriteLineReq accesses (Ratio)
system.cpu.dcache.WriteLineReq.avgMissLatency::cpu.data 31861.893130                       # average WriteLineReq miss latency ((Tick/Count))
system.cpu.dcache.WriteLineReq.avgMissLatency::total 31861.893130                       # average WriteLineReq miss latency ((Tick/Count))
system.cpu.dcache.WriteLineReq.mshrMisses::cpu.data          131                       # number of WriteLineReq MSHR misses (Count)
system.cpu.dcache.WriteLineReq.mshrMisses::total          131                       # number of WriteLineReq MSHR misses (Count)
system.cpu.dcache.WriteLineReq.mshrMissLatency::cpu.data      4042908                       # number of WriteLineReq MSHR miss ticks (Tick)
system.cpu.dcache.WriteLineReq.mshrMissLatency::total      4042908                       # number of WriteLineReq MSHR miss ticks (Tick)
system.cpu.dcache.WriteLineReq.mshrMissRate::cpu.data            1                       # mshr miss rate for WriteLineReq accesses (Ratio)
system.cpu.dcache.WriteLineReq.mshrMissRate::total            1                       # mshr miss rate for WriteLineReq accesses (Ratio)
system.cpu.dcache.WriteLineReq.avgMshrMissLatency::cpu.data 30861.893130                       # average WriteLineReq mshr miss latency ((Tick/Count))
system.cpu.dcache.WriteLineReq.avgMshrMissLatency::total 30861.893130                       # average WriteLineReq mshr miss latency ((Tick/Count))
system.cpu.dcache.WriteReq.hits::cpu.data      2515927                       # number of WriteReq hits (Count)
system.cpu.dcache.WriteReq.hits::total        2515927                       # number of WriteReq hits (Count)
system.cpu.dcache.WriteReq.misses::cpu.data         5583                       # number of WriteReq misses (Count)
system.cpu.dcache.WriteReq.misses::total         5583                       # number of WriteReq misses (Count)
system.cpu.dcache.WriteReq.missLatency::cpu.data    325960580                       # number of WriteReq miss ticks (Tick)
system.cpu.dcache.WriteReq.missLatency::total    325960580                       # number of WriteReq miss ticks (Tick)
system.cpu.dcache.WriteReq.accesses::cpu.data      2521510                       # number of WriteReq accesses(hits+misses) (Count)
system.cpu.dcache.WriteReq.accesses::total      2521510                       # number of WriteReq accesses(hits+misses) (Count)
system.cpu.dcache.WriteReq.missRate::cpu.data     0.002214                       # miss rate for WriteReq accesses (Ratio)
system.cpu.dcache.WriteReq.missRate::total     0.002214                       # miss rate for WriteReq accesses (Ratio)
system.cpu.dcache.WriteReq.avgMissLatency::cpu.data 58384.485044                       # average WriteReq miss latency ((Tick/Count))
system.cpu.dcache.WriteReq.avgMissLatency::total 58384.485044                       # average WriteReq miss latency ((Tick/Count))
system.cpu.dcache.WriteReq.mshrHits::cpu.data         3456                       # number of WriteReq MSHR hits (Count)
system.cpu.dcache.WriteReq.mshrHits::total         3456                       # number of WriteReq MSHR hits (Count)
system.cpu.dcache.WriteReq.mshrMisses::cpu.data         2127                       # number of WriteReq MSHR misses (Count)
system.cpu.dcache.WriteReq.mshrMisses::total         2127                       # number of WriteReq MSHR misses (Count)
system.cpu.dcache.WriteReq.mshrMissLatency::cpu.data    128590790                       # number of WriteReq MSHR miss ticks (Tick)
system.cpu.dcache.WriteReq.mshrMissLatency::total    128590790                       # number of WriteReq MSHR miss ticks (Tick)
system.cpu.dcache.WriteReq.mshrMissRate::cpu.data     0.000844                       # mshr miss rate for WriteReq accesses (Ratio)
system.cpu.dcache.WriteReq.mshrMissRate::total     0.000844                       # mshr miss rate for WriteReq accesses (Ratio)
system.cpu.dcache.WriteReq.avgMshrMissLatency::cpu.data 60456.412788                       # average WriteReq mshr miss latency ((Tick/Count))
system.cpu.dcache.WriteReq.avgMshrMissLatency::total 60456.412788                       # average WriteReq mshr miss latency ((Tick/Count))
system.cpu.dcache.power_state.pwrStateResidencyTicks::UNDEFINED  70684203000                       # Cumulative time (in ticks) in various power states (Tick)
system.cpu.dcache.tags.tagsInUse          1023.472604                       # Average ticks per tags in use ((Tick/Count))
system.cpu.dcache.tags.totalRefs             12419448                       # Total number of references to valid blocks. (Count)
system.cpu.dcache.tags.sampledRefs            3550290                       # Sample count of references to valid blocks. (Count)
system.cpu.dcache.tags.avgRefs               3.498150                       # Average number of references to valid blocks. ((Count/Count))
system.cpu.dcache.tags.warmupTick              253500                       # The tick when the warmup percentage was hit. (Tick)
system.cpu.dcache.tags.occupancies::cpu.data  1023.472604                       # Average occupied blocks per tick, per requestor ((Count/Tick))
system.cpu.dcache.tags.avgOccs::cpu.data     0.999485                       # Average percentage of cache occupancy ((Ratio/Tick))
system.cpu.dcache.tags.avgOccs::total        0.999485                       # Average percentage of cache occupancy ((Ratio/Tick))
system.cpu.dcache.tags.occupanciesTaskId::1024         1024                       # Occupied blocks per task id (Count)
system.cpu.dcache.tags.ageTaskId_1024::0           86                       # Occupied blocks per task id, per block age (Count)
system.cpu.dcache.tags.ageTaskId_1024::1          912                       # Occupied blocks per task id, per block age (Count)
system.cpu.dcache.tags.ageTaskId_1024::2           26                       # Occupied blocks per task id, per block age (Count)
system.cpu.dcache.tags.ratioOccsTaskId::1024            1                       # Ratio of occupied blocks and all blocks, per task id (Ratio)
system.cpu.dcache.tags.tagAccesses           62305126                       # Number of tag accesses (Count)
system.cpu.dcache.tags.dataAccesses          62305126                       # Number of data accesses (Count)
system.cpu.dcache.tags.power_state.pwrStateResidencyTicks::UNDEFINED  70684203000                       # Cumulative time (in ticks) in various power states (Tick)
system.cpu.decode.idleCycles                  3460509                       # Number of cycles decode is idle (Cycle)
system.cpu.decode.blockedCycles             123803957                       # Number of cycles decode is blocked (Cycle)
system.cpu.decode.runCycles                   9164209                       # Number of cycles decode is running (Cycle)
system.cpu.decode.unblockCycles               4719883                       # Number of cycles decode is unblocking (Cycle)
system.cpu.decode.squashCycles                  80337                       # Number of cycles decode is squashing (Cycle)
system.cpu.decode.branchResolved              3200222                       # Number of times decode resolved a branch (Count)
system.cpu.decode.branchMispred                   834                       # Number of times decode detected a branch misprediction (Count)
system.cpu.decode.decodedInsts              106136914                       # Number of instructions handled by decode (Count)
system.cpu.decode.squashedInsts                  2834                       # Number of squashed instructions handled by decode (Count)
system.cpu.fetch.icacheStallCycles            8290210                       # Number of cycles fetch is stalled on an Icache miss (Cycle)
system.cpu.fetch.insts                       95558480                       # Number of instructions fetch has processed (Count)
system.cpu.fetch.branches                     6142181                       # Number of branches that fetch encountered (Count)
system.cpu.fetch.predictedBranches            3325593                       # Number of branches that fetch has predicted taken (Count)
system.cpu.fetch.cycles                     132851964                       # Number of cycles fetch has run and was not squashing or blocked (Cycle)
system.cpu.fetch.squashCycles                  162298                       # Number of cycles fetch has spent squashing (Cycle)
system.cpu.fetch.miscStallCycles                  732                       # Number of cycles fetch has spent waiting on interrupts, or bad addresses, or out of MSHRs (Cycle)
system.cpu.fetch.pendingTrapStallCycles          4799                       # Number of stall cycles due to pending traps (Cycle)
system.cpu.fetch.icacheWaitRetryStallCycles           41                       # Number of stall cycles due to full MSHR (Cycle)
system.cpu.fetch.cacheLines                   8202335                       # Number of cache lines fetched (Count)
system.cpu.fetch.icacheSquashes                 20231                       # Number of outstanding Icache misses that were squashed (Count)
system.cpu.fetch.nisnDist::samples          141228895                       # Number of instructions fetched each cycle (Total) (Count)
system.cpu.fetch.nisnDist::mean              0.764738                       # Number of instructions fetched each cycle (Total) (Count)
system.cpu.fetch.nisnDist::stdev             2.183056                       # Number of instructions fetched each cycle (Total) (Count)
system.cpu.fetch.nisnDist::underflows               0      0.00%      0.00% # Number of instructions fetched each cycle (Total) (Count)
system.cpu.fetch.nisnDist::0                123489565     87.44%     87.44% # Number of instructions fetched each cycle (Total) (Count)
system.cpu.fetch.nisnDist::1                   675943      0.48%     87.92% # Number of instructions fetched each cycle (Total) (Count)
system.cpu.fetch.nisnDist::2                   954257      0.68%     88.59% # Number of instructions fetched each cycle (Total) (Count)
system.cpu.fetch.nisnDist::3                  2756636      1.95%     90.55% # Number of instructions fetched each cycle (Total) (Count)
system.cpu.fetch.nisnDist::4                   761278      0.54%     91.08% # Number of instructions fetched each cycle (Total) (Count)
system.cpu.fetch.nisnDist::5                   978399      0.69%     91.78% # Number of instructions fetched each cycle (Total) (Count)
system.cpu.fetch.nisnDist::6                   926899      0.66%     92.43% # Number of instructions fetched each cycle (Total) (Count)
system.cpu.fetch.nisnDist::7                  1837125      1.30%     93.73% # Number of instructions fetched each cycle (Total) (Count)
system.cpu.fetch.nisnDist::8                  8848793      6.27%    100.00% # Number of instructions fetched each cycle (Total) (Count)
system.cpu.fetch.nisnDist::overflows                0      0.00%    100.00% # Number of instructions fetched each cycle (Total) (Count)
system.cpu.fetch.nisnDist::min_value                0                       # Number of instructions fetched each cycle (Total) (Count)
system.cpu.fetch.nisnDist::max_value                8                       # Number of instructions fetched each cycle (Total) (Count)
system.cpu.fetch.nisnDist::total            141228895                       # Number of instructions fetched each cycle (Total) (Count)
system.cpu.fetch.branchRate                  0.043448                       # Number of branch fetches per cycle (Ratio)
system.cpu.fetch.rate                        0.675954                       # Number of inst fetches per cycle ((Count/Cycle))
system.cpu.icache.demandHits::cpu.inst        8199731                       # number of demand (read+write) hits (Count)
system.cpu.icache.demandHits::total           8199731                       # number of demand (read+write) hits (Count)
system.cpu.icache.overallHits::cpu.inst       8199731                       # number of overall hits (Count)
system.cpu.icache.overallHits::total          8199731                       # number of overall hits (Count)
system.cpu.icache.demandMisses::cpu.inst         2604                       # number of demand (read+write) misses (Count)
system.cpu.icache.demandMisses::total            2604                       # number of demand (read+write) misses (Count)
system.cpu.icache.overallMisses::cpu.inst         2604                       # number of overall misses (Count)
system.cpu.icache.overallMisses::total           2604                       # number of overall misses (Count)
system.cpu.icache.demandMissLatency::cpu.inst    176444499                       # number of demand (read+write) miss ticks (Tick)
system.cpu.icache.demandMissLatency::total    176444499                       # number of demand (read+write) miss ticks (Tick)
system.cpu.icache.overallMissLatency::cpu.inst    176444499                       # number of overall miss ticks (Tick)
system.cpu.icache.overallMissLatency::total    176444499                       # number of overall miss ticks (Tick)
system.cpu.icache.demandAccesses::cpu.inst      8202335                       # number of demand (read+write) accesses (Count)
system.cpu.icache.demandAccesses::total       8202335                       # number of demand (read+write) accesses (Count)
system.cpu.icache.overallAccesses::cpu.inst      8202335                       # number of overall (read+write) accesses (Count)
system.cpu.icache.overallAccesses::total      8202335                       # number of overall (read+write) accesses (Count)
system.cpu.icache.demandMissRate::cpu.inst     0.000317                       # miss rate for demand accesses (Ratio)
system.cpu.icache.demandMissRate::total      0.000317                       # miss rate for demand accesses (Ratio)
system.cpu.icache.overallMissRate::cpu.inst     0.000317                       # miss rate for overall accesses (Ratio)
system.cpu.icache.overallMissRate::total     0.000317                       # miss rate for overall accesses (Ratio)
system.cpu.icache.demandAvgMissLatency::cpu.inst 67759.024194                       # average overall miss latency in ticks ((Tick/Count))
system.cpu.icache.demandAvgMissLatency::total 67759.024194                       # average overall miss latency in ticks ((Tick/Count))
system.cpu.icache.overallAvgMissLatency::cpu.inst 67759.024194                       # average overall miss latency ((Tick/Count))
system.cpu.icache.overallAvgMissLatency::total 67759.024194                       # average overall miss latency ((Tick/Count))
system.cpu.icache.blockedCycles::no_mshrs          842                       # number of cycles access was blocked (Cycle)
system.cpu.icache.blockedCycles::no_targets            0                       # number of cycles access was blocked (Cycle)
system.cpu.icache.blockedCauses::no_mshrs           14                       # number of times access was blocked (Count)
system.cpu.icache.blockedCauses::no_targets            0                       # number of times access was blocked (Count)
system.cpu.icache.avgBlocked::no_mshrs      60.142857                       # average number of cycles each access was blocked ((Cycle/Count))
system.cpu.icache.avgBlocked::no_targets          nan                       # average number of cycles each access was blocked ((Cycle/Count))
system.cpu.icache.writebacks::writebacks         1772                       # number of writebacks (Count)
system.cpu.icache.writebacks::total              1772                       # number of writebacks (Count)
system.cpu.icache.demandMshrHits::cpu.inst          575                       # number of demand (read+write) MSHR hits (Count)
system.cpu.icache.demandMshrHits::total           575                       # number of demand (read+write) MSHR hits (Count)
system.cpu.icache.overallMshrHits::cpu.inst          575                       # number of overall MSHR hits (Count)
system.cpu.icache.overallMshrHits::total          575                       # number of overall MSHR hits (Count)
system.cpu.icache.demandMshrMisses::cpu.inst         2029                       # number of demand (read+write) MSHR misses (Count)
system.cpu.icache.demandMshrMisses::total         2029                       # number of demand (read+write) MSHR misses (Count)
system.cpu.icache.overallMshrMisses::cpu.inst         2029                       # number of overall MSHR misses (Count)
system.cpu.icache.overallMshrMisses::total         2029                       # number of overall MSHR misses (Count)
system.cpu.icache.demandMshrMissLatency::cpu.inst    139044000                       # number of demand (read+write) MSHR miss ticks (Tick)
system.cpu.icache.demandMshrMissLatency::total    139044000                       # number of demand (read+write) MSHR miss ticks (Tick)
system.cpu.icache.overallMshrMissLatency::cpu.inst    139044000                       # number of overall MSHR miss ticks (Tick)
system.cpu.icache.overallMshrMissLatency::total    139044000                       # number of overall MSHR miss ticks (Tick)
system.cpu.icache.demandMshrMissRate::cpu.inst     0.000247                       # mshr miss ratio for demand accesses (Ratio)
system.cpu.icache.demandMshrMissRate::total     0.000247                       # mshr miss ratio for demand accesses (Ratio)
system.cpu.icache.overallMshrMissRate::cpu.inst     0.000247                       # mshr miss ratio for overall accesses (Ratio)
system.cpu.icache.overallMshrMissRate::total     0.000247                       # mshr miss ratio for overall accesses (Ratio)
system.cpu.icache.demandAvgMshrMissLatency::cpu.inst 68528.339083                       # average overall mshr miss latency ((Tick/Count))
system.cpu.icache.demandAvgMshrMissLatency::total 68528.339083                       # average overall mshr miss latency ((Tick/Count))
system.cpu.icache.overallAvgMshrMissLatency::cpu.inst 68528.339083                       # average overall mshr miss latency ((Tick/Count))
system.cpu.icache.overallAvgMshrMissLatency::total 68528.339083                       # average overall mshr miss latency ((Tick/Count))
system.cpu.icache.replacements                   1772                       # number of replacements (Count)
system.cpu.icache.ReadReq.hits::cpu.inst      8199731                       # number of ReadReq hits (Count)
system.cpu.icache.ReadReq.hits::total         8199731                       # number of ReadReq hits (Count)
system.cpu.icache.ReadReq.misses::cpu.inst         2604                       # number of ReadReq misses (Count)
system.cpu.icache.ReadReq.misses::total          2604                       # number of ReadReq misses (Count)
system.cpu.icache.ReadReq.missLatency::cpu.inst    176444499                       # number of ReadReq miss ticks (Tick)
system.cpu.icache.ReadReq.missLatency::total    176444499                       # number of ReadReq miss ticks (Tick)
system.cpu.icache.ReadReq.accesses::cpu.inst      8202335                       # number of ReadReq accesses(hits+misses) (Count)
system.cpu.icache.ReadReq.accesses::total      8202335                       # number of ReadReq accesses(hits+misses) (Count)
system.cpu.icache.ReadReq.missRate::cpu.inst     0.000317                       # miss rate for ReadReq accesses (Ratio)
system.cpu.icache.ReadReq.missRate::total     0.000317                       # miss rate for ReadReq accesses (Ratio)
system.cpu.icache.ReadReq.avgMissLatency::cpu.inst 67759.024194                       # average ReadReq miss latency ((Tick/Count))
system.cpu.icache.ReadReq.avgMissLatency::total 67759.024194                       # average ReadReq miss latency ((Tick/Count))
system.cpu.icache.ReadReq.mshrHits::cpu.inst          575                       # number of ReadReq MSHR hits (Count)
system.cpu.icache.ReadReq.mshrHits::total          575                       # number of ReadReq MSHR hits (Count)
system.cpu.icache.ReadReq.mshrMisses::cpu.inst         2029                       # number of ReadReq MSHR misses (Count)
system.cpu.icache.ReadReq.mshrMisses::total         2029                       # number of ReadReq MSHR misses (Count)
system.cpu.icache.ReadReq.mshrMissLatency::cpu.inst    139044000                       # number of ReadReq MSHR miss ticks (Tick)
system.cpu.icache.ReadReq.mshrMissLatency::total    139044000                       # number of ReadReq MSHR miss ticks (Tick)
system.cpu.icache.ReadReq.mshrMissRate::cpu.inst     0.000247                       # mshr miss rate for ReadReq accesses (Ratio)
system.cpu.icache.ReadReq.mshrMissRate::total     0.000247                       # mshr miss rate for ReadReq accesses (Ratio)
system.cpu.icache.ReadReq.avgMshrMissLatency::cpu.inst 68528.339083                       # average ReadReq mshr miss latency ((Tick/Count))
system.cpu.icache.ReadReq.avgMshrMissLatency::total 68528.339083                       # average ReadReq mshr miss latency ((Tick/Count))
system.cpu.icache.power_state.pwrStateResidencyTicks::UNDEFINED  70684203000                       # Cumulative time (in ticks) in various power states (Tick)
system.cpu.icache.tags.tagsInUse           255.945390                       # Average ticks per tags in use ((Tick/Count))
system.cpu.icache.tags.totalRefs              8201759                       # Total number of references to valid blocks. (Count)
system.cpu.icache.tags.sampledRefs               2028                       # Sample count of references to valid blocks. (Count)
system.cpu.icache.tags.avgRefs            4044.259862                       # Average number of references to valid blocks. ((Count/Count))
system.cpu.icache.tags.warmupTick               87500                       # The tick when the warmup percentage was hit. (Tick)
system.cpu.icache.tags.occupancies::cpu.inst   255.945390                       # Average occupied blocks per tick, per requestor ((Count/Tick))
system.cpu.icache.tags.avgOccs::cpu.inst     0.999787                       # Average percentage of cache occupancy ((Ratio/Tick))
system.cpu.icache.tags.avgOccs::total        0.999787                       # Average percentage of cache occupancy ((Ratio/Tick))
system.cpu.icache.tags.occupanciesTaskId::1024          256                       # Occupied blocks per task id (Count)
system.cpu.icache.tags.ageTaskId_1024::0           71                       # Occupied blocks per task id, per block age (Count)
system.cpu.icache.tags.ageTaskId_1024::1          101                       # Occupied blocks per task id, per block age (Count)
system.cpu.icache.tags.ageTaskId_1024::4           84                       # Occupied blocks per task id, per block age (Count)
system.cpu.icache.tags.ratioOccsTaskId::1024            1                       # Ratio of occupied blocks and all blocks, per task id (Ratio)
system.cpu.icache.tags.tagAccesses           32811368                       # Number of tag accesses (Count)
system.cpu.icache.tags.dataAccesses          32811368                       # Number of data accesses (Count)
system.cpu.icache.tags.power_state.pwrStateResidencyTicks::UNDEFINED  70684203000                       # Cumulative time (in ticks) in various power states (Tick)
system.cpu.iew.idleCycles                           0                       # Number of cycles IEW is idle (Cycle)
system.cpu.iew.squashCycles                     80337                       # Number of cycles IEW is squashing (Cycle)
system.cpu.iew.blockCycles                   50416281                       # Number of cycles IEW is blocking (Cycle)
system.cpu.iew.unblockCycles                  1083780                       # Number of cycles IEW is unblocking (Cycle)
system.cpu.iew.dispatchedInsts              105309319                       # Number of instructions dispatched to IQ (Count)
system.cpu.iew.dispSquashedInsts                38968                       # Number of squashed instructions skipped by dispatch (Count)
system.cpu.iew.dispLoadInsts                 12337361                       # Number of dispatched load instructions (Count)
system.cpu.iew.dispStoreInsts                 2560505                       # Number of dispatched store instructions (Count)
system.cpu.iew.dispNonSpecInsts                   400                       # Number of dispatched non-speculative instructions (Count)
system.cpu.iew.iqFullEvents                    421205                       # Number of times the IQ has become full, causing a stall (Count)
system.cpu.iew.lsqFullEvents                    26503                       # Number of times the LSQ has become full, causing a stall (Count)
system.cpu.iew.memOrderViolationEvents            195                       # Number of memory order violations (Count)
system.cpu.iew.predictedTakenIncorrect          26567                       # Number of branches that were predicted taken incorrectly (Count)
system.cpu.iew.predictedNotTakenIncorrect        55548                       # Number of branches that were predicted not taken incorrectly (Count)
system.cpu.iew.branchMispredicts                82115                       # Number of branch mispredicts detected at execute (Count)
system.cpu.iew.instsToCommit                104572833                       # Cumulative count of insts sent to commit (Count)
system.cpu.iew.writebackCount               104557519                       # Cumulative count of insts written-back (Count)
system.cpu.iew.producerInst                  81767482                       # Number of instructions producing a value (Count)
system.cpu.iew.consumerInst                 117850040                       # Number of instructions consuming a value (Count)
system.cpu.iew.wbRate                        0.739610                       # Insts written-back per cycle ((Count/Cycle))
system.cpu.iew.wbFanout                      0.693827                       # Average fanout of values written-back ((Count/Count))
system.cpu.lsq0.forwLoads                       25013                       # Number of loads that had data forwarded from stores (Count)
system.cpu.lsq0.squashedLoads                  255195                       # Number of loads squashed (Count)
system.cpu.lsq0.ignoredResponses                   42                       # Number of memory responses ignored because the instruction is squashed (Count)
system.cpu.lsq0.memOrderViolation                 195                       # Number of memory ordering violations (Count)
system.cpu.lsq0.squashedStores                  38772                       # Number of stores squashed (Count)
system.cpu.lsq0.rescheduledLoads                 9252                       # Number of loads that were rescheduled (Count)
system.cpu.lsq0.blockedByCache                2834782                       # Number of times an access to memory failed due to the cache being blocked (Count)
system.cpu.lsq0.loadToUse::samples           12082166                       # Distribution of cycle latency between the first time a load is issued and its completion (Unspecified)
system.cpu.lsq0.loadToUse::mean            119.116908                       # Distribution of cycle latency between the first time a load is issued and its completion (Unspecified)
system.cpu.lsq0.loadToUse::stdev           119.846386                       # Distribution of cycle latency between the first time a load is issued and its completion (Unspecified)
system.cpu.lsq0.loadToUse::0-9                2439292     20.19%     20.19% # Distribution of cycle latency between the first time a load is issued and its completion (Unspecified)
system.cpu.lsq0.loadToUse::10-19               426912      3.53%     23.72% # Distribution of cycle latency between the first time a load is issued and its completion (Unspecified)
system.cpu.lsq0.loadToUse::20-29               827417      6.85%     30.57% # Distribution of cycle latency between the first time a load is issued and its completion (Unspecified)
system.cpu.lsq0.loadToUse::30-39               449633      3.72%     34.29% # Distribution of cycle latency between the first time a load is issued and its completion (Unspecified)
system.cpu.lsq0.loadToUse::40-49               453101      3.75%     38.04% # Distribution of cycle latency between the first time a load is issued and its completion (Unspecified)
system.cpu.lsq0.loadToUse::50-59               310017      2.57%     40.61% # Distribution of cycle latency between the first time a load is issued and its completion (Unspecified)
[...]
system.mem_ctrls.dram.perBankWrBursts::10       157167                       # Per bank write bursts (Count)
system.mem_ctrls.dram.perBankWrBursts::11       135890                       # Per bank write bursts (Count)
system.mem_ctrls.dram.perBankWrBursts::12       137700                       # Per bank write bursts (Count)
system.mem_ctrls.dram.perBankWrBursts::13       169485                       # Per bank write bursts (Count)
system.mem_ctrls.dram.perBankWrBursts::14       131136                       # Per bank write bursts (Count)
system.mem_ctrls.dram.perBankWrBursts::15       124925                       # Per bank write bursts (Count)
system.mem_ctrls.dram.totQLat             61273513500                       # Total ticks spent queuing (Tick)
system.mem_ctrls.dram.totBusLat           13248990000                       # Total ticks spent in databus transfers (Tick)
system.mem_ctrls.dram.totMemAccLat       110957226000                       # Total ticks spent from burst creation until serviced by the DRAM (Tick)
system.mem_ctrls.dram.avgQLat                23123.84                       # Average queueing delay per DRAM burst ((Tick/Count))
system.mem_ctrls.dram.avgBusLat               5000.00                       # Average bus latency per DRAM burst ((Tick/Count))
system.mem_ctrls.dram.avgMemAccLat           41873.84                       # Average memory access latency per DRAM burst ((Tick/Count))
system.mem_ctrls.dram.readRowHits             2402725                       # Number of row buffer hits during reads (Count)
system.mem_ctrls.dram.writeRowHits            2063401                       # Number of row buffer hits during writes (Count)
system.mem_ctrls.dram.readRowHitRate            90.68                       # Row buffer hit rate for reads (Ratio)
system.mem_ctrls.dram.writeRowHitRate           88.45                       # Row buffer hit rate for writes (Ratio)
system.mem_ctrls.dram.bytesPerActivate::samples       516427                       # Bytes accessed per row activation (Byte)
system.mem_ctrls.dram.bytesPerActivate::mean   617.479102                       # Bytes accessed per row activation (Byte)
system.mem_ctrls.dram.bytesPerActivate::gmean   476.333648                       # Bytes accessed per row activation (Byte)
system.mem_ctrls.dram.bytesPerActivate::stdev   349.989718                       # Bytes accessed per row activation (Byte)
system.mem_ctrls.dram.bytesPerActivate::0-127        33992      6.58%      6.58% # Bytes accessed per row activation (Byte)
system.mem_ctrls.dram.bytesPerActivate::128-255        60587     11.73%     18.31% # Bytes accessed per row activation (Byte)
system.mem_ctrls.dram.bytesPerActivate::256-383        63145     12.23%     30.54% # Bytes accessed per row activation (Byte)
system.mem_ctrls.dram.bytesPerActivate::384-511        44310      8.58%     39.12% # Bytes accessed per row activation (Byte)
system.mem_ctrls.dram.bytesPerActivate::512-639        52332     10.13%     49.25% # Bytes accessed per row activation (Byte)
system.mem_ctrls.dram.bytesPerActivate::640-767        39323      7.61%     56.87% # Bytes accessed per row activation (Byte)
system.mem_ctrls.dram.bytesPerActivate::768-895        38240      7.40%     64.27% # Bytes accessed per row activation (Byte)
system.mem_ctrls.dram.bytesPerActivate::896-1023        20672      4.00%     68.28% # Bytes accessed per row activation (Byte)
system.mem_ctrls.dram.bytesPerActivate::1024-1151       163826     31.72%    100.00% # Bytes accessed per row activation (Byte)
system.mem_ctrls.dram.bytesPerActivate::total       516427                       # Bytes accessed per row activation (Byte)
system.mem_ctrls.dram.bytesRead             169587072                       # Total bytes read (Byte)
system.mem_ctrls.dram.bytesWritten          149296640                       # Total bytes written (Byte)
system.mem_ctrls.dram.avgRdBW             2399.221676                       # Average DRAM read bandwidth in MiBytes/s ((Byte/Second))
system.mem_ctrls.dram.avgWrBW             2112.164156                       # Average DRAM write bandwidth in MiBytes/s ((Byte/Second))
system.mem_ctrls.dram.peakBW                 12800.00                       # Theoretical peak bandwidth in MiByte/s ((Byte/Second))
system.mem_ctrls.dram.busUtil                   35.25                       # Data bus utilization in percentage (Ratio)
system.mem_ctrls.dram.busUtilRead               18.74                       # Data bus utilization in percentage for reads (Ratio)
system.mem_ctrls.dram.busUtilWrite              16.50                       # Data bus utilization in percentage for writes (Ratio)
system.mem_ctrls.dram.pageHitRate               89.64                       # Row buffer hit rate, read and write combined (Ratio)
system.mem_ctrls.dram.power_state.pwrStateResidencyTicks::UNDEFINED  70684203000                       # Cumulative time (in ticks) in various power states (Tick)
system.mem_ctrls.dram.rank0.actEnergy      1833002220                       # Energy for activate commands per rank (pJ) (Joule)
system.mem_ctrls.dram.rank0.preEnergy       974256195                       # Energy for precharge commands per rank (pJ) (Joule)
system.mem_ctrls.dram.rank0.readEnergy     9434339040                       # Energy for read commands per rank (pJ) (Joule)
system.mem_ctrls.dram.rank0.writeEnergy    6102806400                       # Energy for write commands per rank (pJ) (Joule)
system.mem_ctrls.dram.rank0.refreshEnergy 5579701920.000001                       # Energy for refresh commands per rank (pJ) (Joule)
system.mem_ctrls.dram.rank0.actBackEnergy  31380301770                       # Energy for active background per rank (pJ) (Joule)
system.mem_ctrls.dram.rank0.preBackEnergy    717216960                       # Energy for precharge background per rank (pJ) (Joule)
system.mem_ctrls.dram.rank0.actPowerDownEnergy            0                       # Energy for active power-down per rank (pJ) (Joule)
system.mem_ctrls.dram.rank0.prePowerDownEnergy            0                       # Energy for precharge power-down per rank (pJ) (Joule)
system.mem_ctrls.dram.rank0.selfRefreshEnergy            0                       # Energy for self refresh per rank (pJ) (Joule)
system.mem_ctrls.dram.rank0.totalEnergy   56021624505                       # Total energy per rank (pJ) (Joule)
system.mem_ctrls.dram.rank0.averagePower   792.562159                       # Core power per rank (mW) (Watt)
system.mem_ctrls.dram.rank0.totalIdleTime            0                       # Total Idle time Per DRAM Rank (Tick)
system.mem_ctrls.dram.rank0.pwrStateTime::IDLE   1608392000                       # Time in different power states (Tick)
system.mem_ctrls.dram.rank0.pwrStateTime::REF   2360280000                       # Time in different power states (Tick)
system.mem_ctrls.dram.rank0.pwrStateTime::SREF            0                       # Time in different power states (Tick)
system.mem_ctrls.dram.rank0.pwrStateTime::PRE_PDN            0                       # Time in different power states (Tick)
system.mem_ctrls.dram.rank0.pwrStateTime::ACT  66715531000                       # Time in different power states (Tick)
system.mem_ctrls.dram.rank0.pwrStateTime::ACT_PDN            0                       # Time in different power states (Tick)
system.mem_ctrls.dram.rank1.actEnergy      1854322260                       # Energy for activate commands per rank (pJ) (Joule)
system.mem_ctrls.dram.rank1.preEnergy       985584270                       # Energy for precharge commands per rank (pJ) (Joule)
system.mem_ctrls.dram.rank1.readEnergy     9485218680                       # Energy for read commands per rank (pJ) (Joule)
system.mem_ctrls.dram.rank1.writeEnergy    6074200800                       # Energy for write commands per rank (pJ) (Joule)
system.mem_ctrls.dram.rank1.refreshEnergy 5579701920.000001                       # Energy for refresh commands per rank (pJ) (Joule)
system.mem_ctrls.dram.rank1.actBackEnergy  31421151390                       # Energy for active background per rank (pJ) (Joule)
system.mem_ctrls.dram.rank1.preBackEnergy    682817280                       # Energy for precharge background per rank (pJ) (Joule)
system.mem_ctrls.dram.rank1.actPowerDownEnergy            0                       # Energy for active power-down per rank (pJ) (Joule)
system.mem_ctrls.dram.rank1.prePowerDownEnergy            0                       # Energy for precharge power-down per rank (pJ) (Joule)
system.mem_ctrls.dram.rank1.selfRefreshEnergy            0                       # Energy for self refresh per rank (pJ) (Joule)
system.mem_ctrls.dram.rank1.totalEnergy   56082996600                       # Total energy per rank (pJ) (Joule)
system.mem_ctrls.dram.rank1.averagePower   793.430416                       # Core power per rank (mW) (Watt)
system.mem_ctrls.dram.rank1.totalIdleTime            0                       # Total Idle time Per DRAM Rank (Tick)
system.mem_ctrls.dram.rank1.pwrStateTime::IDLE   1518937750                       # Time in different power states (Tick)
system.mem_ctrls.dram.rank1.pwrStateTime::REF   2360280000                       # Time in different power states (Tick)
system.mem_ctrls.dram.rank1.pwrStateTime::SREF            0                       # Time in different power states (Tick)
system.mem_ctrls.dram.rank1.pwrStateTime::PRE_PDN            0                       # Time in different power states (Tick)
system.mem_ctrls.dram.rank1.pwrStateTime::ACT  66804985250                       # Time in different power states (Tick)
system.mem_ctrls.dram.rank1.pwrStateTime::ACT_PDN            0                       # Time in different power states (Tick)
system.mem_ctrls.power_state.pwrStateResidencyTicks::UNDEFINED  70684203000                       # Cumulative time (in ticks) in various power states (Tick)
system.membus.transDist::ReadResp             2648338                       # Transaction distribution (Count)
system.membus.transDist::WritebackDirty       2332785                       # Transaction distribution (Count)
system.membus.transDist::CleanEvict            312994                       # Transaction distribution (Count)
system.membus.transDist::ReadExReq               1480                       # Transaction distribution (Count)
system.membus.transDist::ReadExResp              1480                       # Transaction distribution (Count)
system.membus.transDist::ReadSharedReq        2648338                       # Transaction distribution (Count)
system.membus.transDist::InvalidateReq            145                       # Transaction distribution (Count)
system.membus.pktCount_system.l2.mem_side_port::system.mem_ctrls.port      7945560                       # Packet count per connected requestor and responder (Count)
system.membus.pktCount::total                 7945560                       # Packet count per connected requestor and responder (Count)
system.membus.pktSize_system.l2.mem_side_port::system.mem_ctrls.port    318886592                       # Cumulative packet size per connected requestor and responder (Byte)
system.membus.pktSize::total                318886592                       # Cumulative packet size per connected requestor and responder (Byte)
system.membus.snoops                                0                       # Total snoops (Count)
system.membus.snoopTraffic                          0                       # Total snoop traffic (Byte)
system.membus.snoopFanout::samples            2649963                       # Request fanout histogram (Count)
system.membus.snoopFanout::mean                     0                       # Request fanout histogram (Count)
system.membus.snoopFanout::stdev                    0                       # Request fanout histogram (Count)
system.membus.snoopFanout::underflows               0      0.00%      0.00% # Request fanout histogram (Count)
system.membus.snoopFanout::0                  2649963    100.00%    100.00% # Request fanout histogram (Count)
system.membus.snoopFanout::1                        0      0.00%    100.00% # Request fanout histogram (Count)
system.membus.snoopFanout::overflows                0      0.00%    100.00% # Request fanout histogram (Count)
system.membus.snoopFanout::min_value                0                       # Request fanout histogram (Count)
system.membus.snoopFanout::max_value                0                       # Request fanout histogram (Count)
system.membus.snoopFanout::total              2649963                       # Request fanout histogram (Count)
system.membus.power_state.pwrStateResidencyTicks::UNDEFINED  70684203000                       # Cumulative time (in ticks) in various power states (Tick)
system.membus.reqLayer0.occupancy         15334533500                       # Layer occupancy (ticks) (Tick)
system.membus.reqLayer0.utilization               0.2                       # Layer utilization (Ratio)
system.membus.respLayer1.occupancy        13861387000                       # Layer occupancy (ticks) (Tick)
system.membus.respLayer1.utilization              0.2                       # Layer utilization (Ratio)
system.membus.snoop_filter.totRequests        5295742                       # Total number of requests made to the snoop filter. (Count)
system.membus.snoop_filter.hitSingleRequests      2645779                       # Number of requests hitting in the snoop filter with a single holder of the requested data. (Count)
system.membus.snoop_filter.hitMultiRequests            0                       # Number of requests hitting in the snoop filter with multiple (>1) holders of the requested data. (Count)
system.membus.snoop_filter.totSnoops                0                       # Total number of snoops made to the snoop filter. (Count)
system.membus.snoop_filter.hitSingleSnoops            0                       # Number of snoops hitting in the snoop filter with a single holder of the requested data. (Count)
system.membus.snoop_filter.hitMultiSnoops            0                       # Number of snoops hitting in the snoop filter with multiple (>1) holders of the requested data. (Count)
system.tol2bus.transDist::ReadResp            3550054                       # Transaction distribution (Count)
system.tol2bus.transDist::WritebackDirty      4669032                       # Transaction distribution (Count)
system.tol2bus.transDist::WritebackClean         1772                       # Transaction distribution (Count)
system.tol2bus.transDist::CleanEvict          1526644                       # Transaction distribution (Count)
system.tol2bus.transDist::ReadExReq              2118                       # Transaction distribution (Count)
system.tol2bus.transDist::ReadExResp             2118                       # Transaction distribution (Count)
system.tol2bus.transDist::ReadCleanReq           2029                       # Transaction distribution (Count)
system.tol2bus.transDist::ReadSharedReq       3548026                       # Transaction distribution (Count)
system.tol2bus.transDist::InvalidateReq           146                       # Transaction distribution (Count)
system.tol2bus.transDist::InvalidateResp          146                       # Transaction distribution (Count)
system.tol2bus.pktCount_system.cpu.icache.mem_side_port::system.l2.cpu_side_port         5829                       # Packet count per connected requestor and responder (Count)
system.tol2bus.pktCount_system.cpu.dcache.mem_side_port::system.l2.cpu_side_port     10649846                       # Packet count per connected requestor and responder (Count)
system.tol2bus.pktCount::total               10655675                       # Packet count per connected requestor and responder (Count)
system.tol2bus.pktSize_system.cpu.icache.mem_side_port::system.l2.cpu_side_port       243200                       # Cumulative packet size per connected requestor and responder (Byte)
system.tol2bus.pktSize_system.cpu.dcache.mem_side_port::system.l2.cpu_side_port    376728960                       # Cumulative packet size per connected requestor and responder (Byte)
system.tol2bus.pktSize::total               376972160                       # Cumulative packet size per connected requestor and responder (Byte)
system.tol2bus.snoops                         2646410                       # Total snoops (Count)
system.tol2bus.snoopTraffic                 149298304                       # Total snoop traffic (Byte)
system.tol2bus.snoopFanout::samples           6198729                       # Request fanout histogram (Count)
system.tol2bus.snoopFanout::mean             0.000130                       # Request fanout histogram (Count)
system.tol2bus.snoopFanout::stdev            0.011409                       # Request fanout histogram (Count)
system.tol2bus.snoopFanout::underflows              0      0.00%      0.00% # Request fanout histogram (Count)
system.tol2bus.snoopFanout::0                 6197922     99.99%     99.99% # Request fanout histogram (Count)
system.tol2bus.snoopFanout::1                     807      0.01%    100.00% # Request fanout histogram (Count)
system.tol2bus.snoopFanout::2                       0      0.00%    100.00% # Request fanout histogram (Count)
system.tol2bus.snoopFanout::overflows               0      0.00%    100.00% # Request fanout histogram (Count)
system.tol2bus.snoopFanout::min_value               0                       # Request fanout histogram (Count)
system.tol2bus.snoopFanout::max_value               1                       # Request fanout histogram (Count)
system.tol2bus.snoopFanout::total             6198729                       # Request fanout histogram (Count)
system.tol2bus.power_state.pwrStateResidencyTicks::UNDEFINED  70684203000                       # Cumulative time (in ticks) in various power states (Tick)
system.tol2bus.reqLayer0.occupancy         5889696500                       # Layer occupancy (ticks) (Tick)
system.tol2bus.reqLayer0.utilization              0.1                       # Layer utilization (Ratio)
system.tol2bus.respLayer0.occupancy           3043497                       # Layer occupancy (ticks) (Tick)
system.tol2bus.respLayer0.utilization             0.0                       # Layer utilization (Ratio)
system.tol2bus.respLayer1.occupancy        5325289000                       # Layer occupancy (ticks) (Tick)
system.tol2bus.respLayer1.utilization             0.1                       # Layer utilization (Ratio)
system.tol2bus.snoop_filter.totRequests       7103357                       # Total number of requests made to the snoop filter. (Count)
system.tol2bus.snoop_filter.hitSingleRequests      3551038                       # Number of requests hitting in the snoop filter with a single holder of the requested data. (Count)
system.tol2bus.snoop_filter.hitMultiRequests            1                       # Number of requests hitting in the snoop filter with multiple (>1) holders of the requested data. (Count)
system.tol2bus.snoop_filter.totSnoops             806                       # Total number of snoops made to the snoop filter. (Count)
system.tol2bus.snoop_filter.hitSingleSnoops          806                       # Number of snoops hitting in the snoop filter with a single holder of the requested data. (Count)
system.tol2bus.snoop_filter.hitMultiSnoops            0                       # Number of snoops hitting in the snoop filter with multiple (>1) holders of the requested data. (Count)
system.voltage_domain.voltage                       1                       # Voltage in Volts (Volt)
system.workload.inst.arm                            0                       # number of arm instructions executed (Count)
system.workload.inst.quiesce                        0                       # number of quiesce instructions executed (Count)

---------- End Simulation Statistics   ----------
