
---------- Begin Simulation Statistics ----------
simSeconds                                   0.081501                       # Number of seconds simulated (Second)
simTicks                                  81501404500                       # Number of ticks simulated (Tick)
finalTick                                 82497939500                       # Number of ticks from beginning of simulation (restored from checkpoints and never reset) (Tick)
simFreq                                  1000000000000                       # The number of ticks per simulated second ((Tick/Second))
hostSeconds                                    377.81                       # Real time elapsed on the host (Second)
hostTickRate                                215723420                       # The number of ticks simulated per host second (ticks/s) ((Tick/Second))
hostMemory                                     680136                       # Number of bytes of host memory used (Byte)
simInsts                                     60971815                       # Number of instructions simulated (Count)
simOps                                       65778129                       # Number of ops (including micro ops) simulated (Count)
hostInstRate                                   161384                       # Simulator instruction rate (inst/s) ((Count/Second))
hostOpRate                                     174106                       # Simulator op (including micro ops) rate (op/s) ((Count/Second))
system.clk_domain.clock                          1000                       # Clock period in ticks (Tick)
system.cpu.numCycles                        163002809                       # Number of cpu cycles simulated (Cycle)
system.cpu.numWorkItemsStarted                      0                       # Number of work items this cpu started (Count)
system.cpu.numWorkItemsCompleted                    0                       # Number of work items this cpu completed (Count)
system.cpu.instsAdded                        64109340                       # Number of instructions added to the IQ (excludes non-spec) (Count)
system.cpu.nonSpecInstsAdded                        1                       # Number of non-speculative instructions added to the IQ (Count)
system.cpu.instsIssued                       85116406                       # Number of instructions issued (Count)
system.cpu.squashedInstsIssued                  31887                       # Number of squashed instructions issued (Count)
system.cpu.squashedInstsExamined               258124                       # Number of squashed instructions iterated over during squash; mainly for profiling (Count)
system.cpu.squashedOperandsExamined            453652                       # Number of squashed operands that are examined and possibly removed from graph (Count)
system.cpu.numIssuedDist::samples           163000228                       # Number of insts issued each cycle (Count)
system.cpu.numIssuedDist::mean               0.522186                       # Number of insts issued each cycle (Count)
system.cpu.numIssuedDist::stdev              1.309021                       # Number of insts issued each cycle (Count)
system.cpu.numIssuedDist::underflows                0      0.00%      0.00% # Number of insts issued each cycle (Count)
system.cpu.numIssuedDist::0                 132372105     81.21%     81.21% # Number of insts issued each cycle (Count)
system.cpu.numIssuedDist::1                   9664437      5.93%     87.14% # Number of insts issued each cycle (Count)
system.cpu.numIssuedDist::2                   6533694      4.01%     91.15% # Number of insts issued each cycle (Count)
system.cpu.numIssuedDist::3                   2503920      1.54%     92.68% # Number of insts issued each cycle (Count)
system.cpu.numIssuedDist::4                   7913934      4.86%     97.54% # Number of insts issued each cycle (Count)
system.cpu.numIssuedDist::5                   2303609      1.41%     98.95% # Number of insts issued each cycle (Count)
system.cpu.numIssuedDist::6                    698856      0.43%     99.38% # Number of insts issued each cycle (Count)
system.cpu.numIssuedDist::7                    571480      0.35%     99.73% # Number of insts issued each cycle (Count)
system.cpu.numIssuedDist::8                    438193      0.27%    100.00% # Number of insts issued each cycle (Count)
system.cpu.numIssuedDist::overflows                 0      0.00%    100.00% # Number of insts issued each cycle (Count)
system.cpu.numIssuedDist::min_value                 0                       # Number of insts issued each cycle (Count)
system.cpu.numIssuedDist::max_value                 8                       # Number of insts issued each cycle (Count)
system.cpu.numIssuedDist::total             163000228                       # Number of insts issued each cycle (Count)
system.cpu.statFuBusy::No_OpClass                   0      0.00%      0.00% # attempts to use FU when none available (Count)
system.cpu.statFuBusy::IntAlu                     163      0.00%      0.00% # attempts to use FU when none available (Count)
system.cpu.statFuBusy::IntMult                      0      0.00%      0.00% # attempts to use FU when none available (Count)
system.cpu.statFuBusy::IntDiv                       0      0.00%      0.00% # attempts to use FU when none available (Count)
system.cpu.statFuBusy::FloatAdd                     0      0.00%      0.00% # attempts to use FU when none available (Count)
system.cpu.statFuBusy::FloatCmp                     0      0.00%      0.00% # attempts to use FU when none available (Count)
system.cpu.statFuBusy::FloatCvt                     0      0.00%      0.00% # attempts to use FU when none available (Count)
system.cpu.statFuBusy::FloatMult                    0      0.00%      0.00% # attempts to use FU when none available (Count)
system.cpu.statFuBusy::FloatMultAcc                 0      0.00%      0.00% # attempts to use FU when none available (Count)
system.cpu.statFuBusy::FloatDiv                     0      0.00%      0.00% # attempts to use FU when none available (Count)
system.cpu.statFuBusy::FloatMisc                    0      0.00%      0.00% # attempts to use FU when none available (Count)
system.cpu.statFuBusy::FloatSqrt                    0      0.00%      0.00% # attempts to use FU when none available (Count)
system.cpu.statFuBusy::SimdAdd                     48      0.00%      0.01% # attempts to use FU when none available (Count)
system.cpu.statFuBusy::SimdAddAcc                   0      0.00%      0.01% # attempts to use FU when none available (Count)
system.cpu.statFuBusy::SimdAlu                    851      0.02%      0.03% # attempts to use FU when none available (Count)
system.cpu.statFuBusy::SimdCmp                      0      0.00%      0.03% # attempts to use FU when none available (Count)
system.cpu.statFuBusy::SimdCvt                      0      0.00%      0.03% # attempts to use FU when none available (Count)
system.cpu.statFuBusy::SimdMisc                     9      0.00%      0.03% # attempts to use FU when none available (Count)
system.cpu.statFuBusy::SimdMult                     0      0.00%      0.03% # attempts to use FU when none available (Count)
system.cpu.statFuBusy::SimdMultAcc                  0      0.00%      0.03% # attempts to use FU when none available (Count)
system.cpu.statFuBusy::SimdShift                    0      0.00%      0.03% # attempts to use FU when none available (Count)
system.cpu.statFuBusy::SimdShiftAcc                 0      0.00%      0.03% # attempts to use FU when none available (Count)
system.cpu.statFuBusy::SimdDiv                      0      0.00%      0.03% # attempts to use FU when none available (Count)
system.cpu.statFuBusy::SimdSqrt                     0      0.00%      0.03% # attempts to use FU when none available (Count)
system.cpu.statFuBusy::SimdFloatAdd                 0      0.00%      0.03% # attempts to use FU when none available (Count)
system.cpu.statFuBusy::SimdFloatAlu                 0      0.00%      0.03% # attempts to use FU when none available (Count)
system.cpu.statFuBusy::SimdFloatCmp                 0      0.00%      0.03% # attempts to use FU when none available (Count)
system.cpu.statFuBusy::SimdFloatCvt                 0      0.00%      0.03% # attempts to use FU when none available (Count)
system.cpu.statFuBusy::SimdFloatDiv                 0      0.00%      0.03% # attempts to use FU when none available (Count)
system.cpu.statFuBusy::SimdFloatMisc                0      0.00%      0.03% # attempts to use FU when none available (Count)
system.cpu.statFuBusy::SimdFloatMult                0      0.00%      0.03% # attempts to use FU when none available (Count)
system.cpu.statFuBusy::SimdFloatMultAcc             0      0.00%      0.03% # attempts to use FU when none available (Count)
system.cpu.statFuBusy::SimdFloatSqrt                0      0.00%      0.03% # attempts to use FU when none available (Count)
system.cpu.statFuBusy::SimdReduceAdd                0      0.00%      0.03% # attempts to use FU when none available (Count)
system.cpu.statFuBusy::SimdReduceAlu                0      0.00%      0.03% # attempts to use FU when none available (Count)
system.cpu.statFuBusy::SimdReduceCmp                0      0.00%      0.03% # attempts to use FU when none available (Count)
system.cpu.statFuBusy::SimdFloatReduceAdd            0      0.00%      0.03% # attempts to use FU when none available (Count)
system.cpu.statFuBusy::SimdFloatReduceCmp            0      0.00%      0.03% # attempts to use FU when none available (Count)
system.cpu.statFuBusy::SimdAes                      0      0.00%      0.03% # attempts to use FU when none available (Count)
system.cpu.statFuBusy::SimdAesMix                   0      0.00%      0.03% # attempts to use FU when none available (Count)
system.cpu.statFuBusy::SimdSha1Hash                 0      0.00%      0.03% # attempts to use FU when none available (Count)
system.cpu.statFuBusy::SimdSha1Hash2                0      0.00%      0.03% # attempts to use FU when none available (Count)
system.cpu.statFuBusy::SimdSha256Hash               0      0.00%      0.03% # attempts to use FU when none available (Count)
system.cpu.statFuBusy::SimdSha256Hash2              0      0.00%      0.03% # attempts to use FU when none available (Count)
system.cpu.statFuBusy::SimdShaSigma2                0      0.00%      0.03% # attempts to use FU when none available (Count)
system.cpu.statFuBusy::SimdShaSigma3                0      0.00%      0.03% # attempts to use FU when none available (Count)
system.cpu.statFuBusy::SimdPredAlu                  0      0.00%      0.03% # attempts to use FU when none available (Count)
system.cpu.statFuBusy::MemRead                3543538     99.97%    100.00% # attempts to use FU when none available (Count)
system.cpu.statFuBusy::MemWrite                     7      0.00%    100.00% # attempts to use FU when none available (Count)
system.cpu.statFuBusy::FloatMemRead                 0      0.00%    100.00% # attempts to use FU when none available (Count)
system.cpu.statFuBusy::FloatMemWrite                0      0.00%    100.00% # attempts to use FU when none available (Count)
system.cpu.statFuBusy::IprAccess                    0      0.00%    100.00% # attempts to use FU when none available (Count)
system.cpu.statFuBusy::InstPrefetch                 0      0.00%    100.00% # attempts to use FU when none available (Count)
system.cpu.statIssuedInstType_0::No_OpClass            0      0.00%      0.00% # Number of instructions issued per FU type, per thread (Count)
system.cpu.statIssuedInstType_0::IntAlu      32117653     37.73%     37.73% # Number of instructions issued per FU type, per thread (Count)
system.cpu.statIssuedInstType_0::IntMult           27      0.00%     37.73% # Number of instructions issued per FU type, per thread (Count)
system.cpu.statIssuedInstType_0::IntDiv             0      0.00%     37.73% # Number of instructions issued per FU type, per thread (Count)
system.cpu.statIssuedInstType_0::FloatAdd            0      0.00%     37.73% # Number of instructions issued per FU type, per thread (Count)
system.cpu.statIssuedInstType_0::FloatCmp            0      0.00%     37.73% # Number of instructions issued per FU type, per thread (Count)
system.cpu.statIssuedInstType_0::FloatCvt            0      0.00%     37.73% # Number of instructions issued per FU type, per thread (Count)
system.cpu.statIssuedInstType_0::FloatMult            0      0.00%     37.73% # Number of instructions issued per FU type, per thread (Count)
system.cpu.statIssuedInstType_0::FloatMultAcc            0      0.00%     37.73% # Number of instructions issued per FU type, per thread (Count)
system.cpu.statIssuedInstType_0::FloatDiv            0      0.00%     37.73% # Number of instructions issued per FU type, per thread (Count)
system.cpu.statIssuedInstType_0::FloatMisc            0      0.00%     37.73% # Number of instructions issued per FU type, per thread (Count)
system.cpu.statIssuedInstType_0::FloatSqrt            0      0.00%     37.73% # Number of instructions issued per FU type, per thread (Count)
system.cpu.statIssuedInstType_0::SimdAdd      4539214      5.33%     43.07% # Number of instructions issued per FU type, per thread (Count)
system.cpu.statIssuedInstType_0::SimdAddAcc            0      0.00%     43.07% # Number of instructions issued per FU type, per thread (Count)
system.cpu.statIssuedInstType_0::SimdAlu      9078464     10.67%     53.73% # Number of instructions issued per FU type, per thread (Count)
system.cpu.statIssuedInstType_0::SimdCmp            0      0.00%     53.73% # Number of instructions issued per FU type, per thread (Count)
system.cpu.statIssuedInstType_0::SimdCvt            0      0.00%     53.73% # Number of instructions issued per FU type, per thread (Count)
system.cpu.statIssuedInstType_0::SimdMisc      4539202      5.33%     59.07% # Number of instructions issued per FU type, per thread (Count)
system.cpu.statIssuedInstType_0::SimdMult            0      0.00%     59.07% # Number of instructions issued per FU type, per thread (Count)
system.cpu.statIssuedInstType_0::SimdMultAcc            0      0.00%     59.07% # Number of instructions issued per FU type, per thread (Count)
system.cpu.statIssuedInstType_0::SimdShift            0      0.00%     59.07% # Number of instructions issued per FU type, per thread (Count)
system.cpu.statIssuedInstType_0::SimdShiftAcc            0      0.00%     59.07% # Number of instructions issued per FU type, per thread (Count)
system.cpu.statIssuedInstType_0::SimdDiv            0      0.00%     59.07% # Number of instructions issued per FU type, per thread (Count)
system.cpu.statIssuedInstType_0::SimdSqrt            0      0.00%     59.07% # Number of instructions issued per FU type, per thread (Count)
system.cpu.statIssuedInstType_0::SimdFloatAdd            0      0.00%     59.07% # Number of instructions issued per FU type, per thread (Count)
system.cpu.statIssuedInstType_0::SimdFloatAlu            0      0.00%     59.07% # Number of instructions issued per FU type, per thread (Count)
system.cpu.statIssuedInstType_0::SimdFloatCmp            0      0.00%     59.07% # Number of instructions issued per FU type, per thread (Count)
system.cpu.statIssuedInstType_0::SimdFloatCvt            0      0.00%     59.07% # Number of instructions issued per FU type, per thread (Count)
system.cpu.statIssuedInstType_0::SimdFloatDiv            0      0.00%     59.07% # Number of instructions issued per FU type, per thread (Count)
system.cpu.statIssuedInstType_0::SimdFloatMisc            0      0.00%     59.07% # Number of instructions issued per FU type, per thread (Count)
system.cpu.statIssuedInstType_0::SimdFloatMult            0      0.00%     59.07% # Number of instructions issued per FU type, per thread (Count)
system.cpu.statIssuedInstType_0::SimdFloatMultAcc            0      0.00%     59.07% # Number of instructions issued per FU type, per thread (Count)
system.cpu.statIssuedInstType_0::SimdFloatSqrt            0      0.00%     59.07% # Number of instructions issued per FU type, per thread (Count)
system.cpu.statIssuedInstType_0::SimdReduceAdd            0      0.00%     59.07% # Number of instructions issued per FU type, per thread (Count)
system.cpu.statIssuedInstType_0::SimdReduceAlu            0      0.00%     59.07% # Number of instructions issued per FU type, per thread (Count)
system.cpu.statIssuedInstType_0::SimdReduceCmp            0      0.00%     59.07% # Number of instructions issued per FU type, per thread (Count)
system.cpu.statIssuedInstType_0::SimdFloatReduceAdd            0      0.00%     59.07% # Number of instructions issued per FU type, per thread (Count)
system.cpu.statIssuedInstType_0::SimdFloatReduceCmp            0      0.00%     59.07% # Number of instructions issued per FU type, per thread (Count)
system.cpu.statIssuedInstType_0::SimdAes            0      0.00%     59.07% # Number of instructions issued per FU type, per thread (Count)
system.cpu.statIssuedInstType_0::SimdAesMix            0      0.00%     59.07% # Number of instructions issued per FU type, per thread (Count)
system.cpu.statIssuedInstType_0::SimdSha1Hash            0      0.00%     59.07% # Number of instructions issued per FU type, per thread (Count)
system.cpu.statIssuedInstType_0::SimdSha1Hash2            0      0.00%     59.07% # Number of instructions issued per FU type, per thread (Count)
system.cpu.statIssuedInstType_0::SimdSha256Hash            0      0.00%     59.07% # Number of instructions issued per FU type, per thread (Count)
system.cpu.statIssuedInstType_0::SimdSha256Hash2            0      0.00%     59.07% # Number of instructions issued per FU type, per thread (Count)
system.cpu.statIssuedInstType_0::SimdShaSigma2            0      0.00%     59.07% # Number of instructions issued per FU type, per thread (Count)
system.cpu.statIssuedInstType_0::SimdShaSigma3            0      0.00%     59.07% # Number of instructions issued per FU type, per thread (Count)
system.cpu.statIssuedInstType_0::SimdPredAlu            0      0.00%     59.07% # Number of instructions issued per FU type, per thread (Count)
system.cpu.statIssuedInstType_0::MemRead     30286205     35.58%     94.65% # Number of instructions issued per FU type, per thread (Count)
system.cpu.statIssuedInstType_0::MemWrite      4555641      5.35%    100.00% # Number of instructions issued per FU type, per thread (Count)
system.cpu.statIssuedInstType_0::FloatMemRead            0      0.00%    100.00% # Number of instructions issued per FU type, per thread (Count)
system.cpu.statIssuedInstType_0::FloatMemWrite            0      0.00%    100.00% # Number of instructions issued per FU type, per thread (Count)
system.cpu.statIssuedInstType_0::IprAccess            0      0.00%    100.00% # Number of instructions issued per FU type, per thread (Count)
system.cpu.statIssuedInstType_0::InstPrefetch            0      0.00%    100.00% # Number of instructions issued per FU type, per thread (Count)
system.cpu.statIssuedInstType_0::total       85116406                       # Number of instructions issued per FU type, per thread (Count)
system.cpu.issueRate                         0.522178                       # Inst issue rate ((Count/Cycle))
system.cpu.fuBusy                             3544616                       # FU busy when requested (Count)
system.cpu.fuBusyRate                        0.041644                       # FU busy rate (busy events/executed inst) ((Count/Count))
system.cpu.intInstQueueReads                268671363                       # Number of integer instruction queue reads (Count)
system.cpu.intInstQueueWrites                41461138                       # Number of integer instruction queue writes (Count)
system.cpu.intInstQueueWakeupAccesses        41214202                       # Number of integer instruction queue wakeup accesses (Count)
system.cpu.fpInstQueueReads                         0                       # Number of floating instruction queue reads (Count)
system.cpu.fpInstQueueWrites                        0                       # Number of floating instruction queue writes (Count)
system.cpu.fpInstQueueWakeupAccesses                0                       # Number of floating instruction queue wakeup accesses (Count)
system.cpu.vecInstQueueReads                 68138180                       # Number of vector instruction queue reads (Count)
system.cpu.vecInstQueueWrites                22906328                       # Number of vector instruction queue writes (Count)
system.cpu.vecInstQueueWakeupAccesses        22695812                       # Number of vector instruction queue wakeup accesses (Count)
system.cpu.intAluAccesses                    53634810                       # Number of integer alu accesses (Count)
system.cpu.fpAluAccesses                            0                       # Number of floating point alu accesses (Count)
system.cpu.vecAluAccesses                    35026212                       # Number of vector alu accesses (Count)
system.cpu.numInsts                          85089896                       # Number of executed instructions (Count)
system.cpu.numLoadInsts                      30275017                       # Number of load instructions executed (Count)
system.cpu.numSquashedInsts                     26510                       # Number of squashed instructions skipped in execute (Count)
system.cpu.numSwp                                   0                       # Number of swp insts executed (Count)
system.cpu.numNop                               18303                       # Number of nop insts executed (Count)
system.cpu.numRefs                           34830650                       # Number of memory reference insts executed (Count)
system.cpu.numBranches                        4587080                       # Number of branches executed (Count)
system.cpu.numStoreInsts                      4555633                       # Number of stores executed (Count)
system.cpu.numRate                           0.522015                       # Inst execution rate ((Count/Cycle))
system.cpu.timesIdled                              20                       # Number of times that the entire CPU went into an idle state and unscheduled itself (Count)
system.cpu.idleCycles                            2581                       # Total number of cycles that the CPU has spent unscheduled due to idling (Cycle)
system.cpu.committedInsts                    59314023                       # Number of Instructions Simulated (Count)
system.cpu.committedOps                      63851238                       # Number of Ops (including micro ops) Simulated (Count)
system.cpu.cpi                               2.748133                       # CPI: Cycles Per Instruction ((Cycle/Count))
system.cpu.totalCpi                          2.748133                       # CPI: Total CPI of All Threads ((Cycle/Count))
system.cpu.ipc                               0.363883                       # IPC: Instructions Per Cycle ((Count/Cycle))
system.cpu.totalIpc                          0.363883                       # IPC: Total IPC of All Threads ((Count/Cycle))
system.cpu.intRegfileReads                   85249718                       # Number of integer regfile reads (Count)
system.cpu.intRegfileWrites                  32020613                       # Number of integer regfile writes (Count)
system.cpu.vecRegfileReads                   40852741                       # number of vector regfile reads (Count)
system.cpu.ccRegfileReads                    13761216                       # number of cc regfile reads (Count)
system.cpu.ccRegfileWrites                   13770369                       # number of cc regfile writes (Count)
system.cpu.miscRegfileReads                  70717810                       # number of misc regfile reads (Count)
system.cpu.MemDepUnit__0.insertedLoads        9150130                       # Number of loads inserted to the mem dependence unit. (Count)
system.cpu.MemDepUnit__0.insertedStores       4569106                       # Number of stores inserted to the mem dependence unit. (Count)
system.cpu.MemDepUnit__0.conflictingLoads            0                       # Number of conflicting loads. (Count)
system.cpu.MemDepUnit__0.conflictingStores            0                       # Number of conflicting stores. (Count)
system.cpu.MemDepUnit__1.insertedLoads              0                       # Number of loads inserted to the mem dependence unit. (Count)
system.cpu.MemDepUnit__1.insertedStores             0                       # Number of stores inserted to the mem dependence unit. (Count)
system.cpu.MemDepUnit__1.conflictingLoads            0                       # Number of conflicting loads. (Count)
system.cpu.MemDepUnit__1.conflictingStores            0                       # Number of conflicting stores. (Count)
system.cpu.MemDepUnit__2.insertedLoads              0                       # Number of loads inserted to the mem dependence unit. (Count)
system.cpu.MemDepUnit__2.insertedStores             0                       # Number of stores inserted to the mem dependence unit. (Count)
system.cpu.MemDepUnit__2.conflictingLoads            0                       # Number of conflicting loads. (Count)
system.cpu.MemDepUnit__2.conflictingStores            0                       # Number of conflicting stores. (Count)
system.cpu.MemDepUnit__3.insertedLoads              0                       # Number of loads inserted to the mem dependence unit. (Count)
system.cpu.MemDepUnit__3.insertedStores             0                       # Number of stores inserted to the mem dependence unit. (Count)
system.cpu.MemDepUnit__3.conflictingLoads            0                       # Number of conflicting loads. (Count)
system.cpu.MemDepUnit__3.conflictingStores            0                       # Number of conflicting stores. (Count)
system.cpu.branchPred.lookups                 4657440                       # Number of BP lookups (Count)
system.cpu.branchPred.condPredicted           4657384                       # Number of conditional branches predicted (Count)
system.cpu.branchPred.condIncorrect             22991                       # Number of conditional branches incorrect (Count)
system.cpu.branchPred.BTBLookups              4635151                       # Number of BTB lookups (Count)
system.cpu.branchPred.BTBUpdates                   38                       # Number of BTB updates (Count)
system.cpu.branchPred.BTBHits                 4635132                       # Number of BTB hits (Count)
system.cpu.branchPred.BTBHitRatio            0.999996                       # BTB Hit Ratio (Ratio)
system.cpu.branchPred.RASUsed                       2                       # Number of times the RAS was used to get a target. (Count)
system.cpu.branchPred.RASIncorrect                  0                       # Number of incorrect RAS predictions. (Count)
system.cpu.branchPred.indirectLookups              37                       # Number of indirect predictor lookups. (Count)
system.cpu.branchPred.indirectHits                  0                       # Number of indirect target hits. (Count)
system.cpu.branchPred.indirectMisses               37                       # Number of indirect misses. (Count)
system.cpu.branchPred.indirectMispredicted            1                       # Number of mispredicted indirect branches. (Count)
system.cpu.commit.commitSquashedInsts          252545                       # The number of squashed insts skipped by commit (Count)
system.cpu.commit.commitNonSpecStalls               1                       # The number of times commit has been forced to stall to communicate backwards (Count)
system.cpu.commit.branchMispredicts             22989                       # The number of times a branch was mispredicted (Count)
system.cpu.commit.numCommittedDist::samples    162955631                       # Number of insts commited each cycle (Count)
system.cpu.commit.numCommittedDist::mean     0.391944                       # Number of insts commited each cycle (Count)
system.cpu.commit.numCommittedDist::stdev     1.497182                       # Number of insts commited each cycle (Count)
system.cpu.commit.numCommittedDist::underflows            0      0.00%      0.00% # Number of insts commited each cycle (Count)
system.cpu.commit.numCommittedDist::0       147752169     90.67%     90.67% # Number of insts commited each cycle (Count)
system.cpu.commit.numCommittedDist::1         5729339      3.52%     94.19% # Number of insts commited each cycle (Count)
system.cpu.commit.numCommittedDist::2          533831      0.33%     94.51% # Number of insts commited each cycle (Count)
system.cpu.commit.numCommittedDist::3          519754      0.32%     94.83% # Number of insts commited each cycle (Count)
system.cpu.commit.numCommittedDist::4          853889      0.52%     95.36% # Number of insts commited each cycle (Count)
system.cpu.commit.numCommittedDist::5            3342      0.00%     95.36% # Number of insts commited each cycle (Count)
system.cpu.commit.numCommittedDist::6         3174869      1.95%     97.31% # Number of insts commited each cycle (Count)
system.cpu.commit.numCommittedDist::7         2075753      1.27%     98.58% # Number of insts commited each cycle (Count)
system.cpu.commit.numCommittedDist::8         2312685      1.42%    100.00% # Number of insts commited each cycle (Count)
system.cpu.commit.numCommittedDist::overflows            0      0.00%    100.00% # Number of insts commited each cycle (Count)
system.cpu.commit.numCommittedDist::min_value            0                       # Number of insts commited each cycle (Count)
system.cpu.commit.numCommittedDist::max_value            8                       # Number of insts commited each cycle (Count)
system.cpu.commit.numCommittedDist::total    162955631                       # Number of insts commited each cycle (Count)
system.cpu.commit.instsCommitted             59332279                       # Number of instructions committed (Count)
system.cpu.commit.opsCommitted               63869494                       # Number of ops (including micro ops) committed (Count)
system.cpu.commit.memRefs                    13648461                       # Number of memory references committed (Count)
system.cpu.commit.loads                       9092890                       # Number of loads committed (Count)
system.cpu.commit.amos                              0                       # Number of atomic instructions committed (Count)
system.cpu.commit.membars                           0                       # Number of memory barriers committed (Count)
system.cpu.commit.branches                    4582111                       # Number of branches committed (Count)
system.cpu.commit.vectorInstructions         22686103                       # Number of committed Vector instructions. (Count)
system.cpu.commit.floating                          0                       # Number of committed floating point instructions. (Count)
system.cpu.commit.integer                    45657527                       # Number of committed integer instructions. (Count)
system.cpu.commit.functionCalls                     1                       # Number of function calls committed. (Count)
system.cpu.commit.committedInstType_0::No_OpClass            0      0.00%      0.00% # Class of committed instruction (Count)
system.cpu.commit.committedInstType_0::IntAlu     32072216     50.22%     50.22% # Class of committed instruction (Count)
system.cpu.commit.committedInstType_0::IntMult           14      0.00%     50.22% # Class of committed instruction (Count)
system.cpu.commit.committedInstType_0::IntDiv            0      0.00%     50.22% # Class of committed instruction (Count)
system.cpu.commit.committedInstType_0::FloatAdd            0      0.00%     50.22% # Class of committed instruction (Count)
system.cpu.commit.committedInstType_0::FloatCmp            0      0.00%     50.22% # Class of committed instruction (Count)
system.cpu.commit.committedInstType_0::FloatCvt            0      0.00%     50.22% # Class of committed instruction (Count)
system.cpu.commit.committedInstType_0::FloatMult            0      0.00%     50.22% # Class of committed instruction (Count)
system.cpu.commit.committedInstType_0::FloatMultAcc            0      0.00%     50.22% # Class of committed instruction (Count)
system.cpu.commit.committedInstType_0::FloatDiv            0      0.00%     50.22% # Class of committed instruction (Count)
system.cpu.commit.committedInstType_0::FloatMisc            0      0.00%     50.22% # Class of committed instruction (Count)
system.cpu.commit.committedInstType_0::FloatSqrt            0      0.00%     50.22% # Class of committed instruction (Count)
system.cpu.commit.committedInstType_0::SimdAdd      4537201      7.10%     57.32% # Class of committed instruction (Count)
system.cpu.commit.committedInstType_0::SimdAddAcc            0      0.00%     57.32% # Class of committed instruction (Count)
system.cpu.commit.committedInstType_0::SimdAlu      9074400     14.21%     71.53% # Class of committed instruction (Count)
system.cpu.commit.committedInstType_0::SimdCmp            0      0.00%     71.53% # Class of committed instruction (Count)
system.cpu.commit.committedInstType_0::SimdCvt            0      0.00%     71.53% # Class of committed instruction (Count)
system.cpu.commit.committedInstType_0::SimdMisc      4537202      7.10%     78.63% # Class of committed instruction (Count)
system.cpu.commit.committedInstType_0::SimdMult            0      0.00%     78.63% # Class of committed instruction (Count)
system.cpu.commit.committedInstType_0::SimdMultAcc            0      0.00%     78.63% # Class of committed instruction (Count)
system.cpu.commit.committedInstType_0::SimdShift            0      0.00%     78.63% # Class of committed instruction (Count)
system.cpu.commit.committedInstType_0::SimdShiftAcc            0      0.00%     78.63% # Class of committed instruction (Count)
system.cpu.commit.committedInstType_0::SimdDiv            0      0.00%     78.63% # Class of committed instruction (Count)
system.cpu.commit.committedInstType_0::SimdSqrt            0      0.00%     78.63% # Class of committed instruction (Count)
system.cpu.commit.committedInstType_0::SimdFloatAdd            0      0.00%     78.63% # Class of committed instruction (Count)
system.cpu.commit.committedInstType_0::SimdFloatAlu            0      0.00%     78.63% # Class of committed instruction (Count)
system.cpu.commit.committedInstType_0::SimdFloatCmp            0      0.00%     78.63% # Class of committed instruction (Count)
system.cpu.commit.committedInstType_0::SimdFloatCvt            0      0.00%     78.63% # Class of committed instruction (Count)
system.cpu.commit.committedInstType_0::SimdFloatDiv            0      0.00%     78.63% # Class of committed instruction (Count)
system.cpu.commit.committedInstType_0::SimdFloatMisc            0      0.00%     78.63% # Class of committed instruction (Count)
system.cpu.commit.committedInstType_0::SimdFloatMult            0      0.00%     78.63% # Class of committed instruction (Count)
system.cpu.commit.committedInstType_0::SimdFloatMultAcc            0      0.00%     78.63% # Class of committed instruction (Count)
system.cpu.commit.committedInstType_0::SimdFloatSqrt            0      0.00%     78.63% # Class of committed instruction (Count)
system.cpu.commit.committedInstType_0::SimdReduceAdd            0      0.00%     78.63% # Class of committed instruction (Count)
system.cpu.commit.committedInstType_0::SimdReduceAlu            0      0.00%     78.63% # Class of committed instruction (Count)
system.cpu.commit.committedInstType_0::SimdReduceCmp            0      0.00%     78.63% # Class of committed instruction (Count)
system.cpu.commit.committedInstType_0::SimdFloatReduceAdd            0      0.00%     78.63% # Class of committed instruction (Count)
system.cpu.commit.committedInstType_0::SimdFloatReduceCmp            0      0.00%     78.63% # Class of committed instruction (Count)
system.cpu.commit.committedInstType_0::SimdAes            0      0.00%     78.63% # Class of committed instruction (Count)
system.cpu.commit.committedInstType_0::SimdAesMix            0      0.00%     78.63% # Class of committed instruction (Count)
system.cpu.commit.committedInstType_0::SimdSha1Hash            0      0.00%     78.63% # Class of committed instruction (Count)
system.cpu.commit.committedInstType_0::SimdSha1Hash2            0      0.00%     78.63% # Class of committed instruction (Count)
system.cpu.commit.committedInstType_0::SimdSha256Hash            0      0.00%     78.63% # Class of committed instruction (Count)
system.cpu.commit.committedInstType_0::SimdSha256Hash2            0      0.00%     78.63% # Class of committed instruction (Count)
system.cpu.commit.committedInstType_0::SimdShaSigma2            0      0.00%     78.63% # Class of committed instruction (Count)
system.cpu.commit.committedInstType_0::SimdShaSigma3            0      0.00%     78.63% # Class of committed instruction (Count)
system.cpu.commit.committedInstType_0::SimdPredAlu            0      0.00%     78.63% # Class of committed instruction (Count)
system.cpu.commit.committedInstType_0::MemRead      9092890     14.24%     92.87% # Class of committed instruction (Count)
system.cpu.commit.committedInstType_0::MemWrite      4555571      7.13%    100.00% # Class of committed instruction (Count)
system.cpu.commit.committedInstType_0::FloatMemRead            0      0.00%    100.00% # Class of committed instruction (Count)
system.cpu.commit.committedInstType_0::FloatMemWrite            0      0.00%    100.00% # Class of committed instruction (Count)
system.cpu.commit.committedInstType_0::IprAccess            0      0.00%    100.00% # Class of committed instruction (Count)
system.cpu.commit.committedInstType_0::InstPrefetch            0      0.00%    100.00% # Class of committed instruction (Count)
system.cpu.commit.committedInstType_0::total     63869494                       # Class of committed instruction (Count)
system.cpu.commit.commitEligibleSamples       2312685                       # number cycles where commit BW limit reached (Cycle)
system.cpu.dcache.demandHits::cpu.data        4914488                       # number of demand (read+write) hits (Count)
system.cpu.dcache.demandHits::total           4914488                       # number of demand (read+write) hits (Count)
system.cpu.dcache.overallHits::cpu.data       4914488                       # number of overall hits (Count)
system.cpu.dcache.overallHits::total          4914488                       # number of overall hits (Count)
system.cpu.dcache.demandMisses::cpu.data      8742093                       # number of demand (read+write) misses (Count)
system.cpu.dcache.demandMisses::total         8742093                       # number of demand (read+write) misses (Count)
system.cpu.dcache.overallMisses::cpu.data      8742093                       # number of overall misses (Count)
system.cpu.dcache.overallMisses::total        8742093                       # number of overall misses (Count)
system.cpu.dcache.demandMissLatency::cpu.data 601225219000                       # number of demand (read+write) miss ticks (Tick)
system.cpu.dcache.demandMissLatency::total 601225219000                       # number of demand (read+write) miss ticks (Tick)
system.cpu.dcache.overallMissLatency::cpu.data 601225219000                       # number of overall miss ticks (Tick)
system.cpu.dcache.overallMissLatency::total 601225219000                       # number of overall miss ticks (Tick)
system.cpu.dcache.demandAccesses::cpu.data     13656581                       # number of demand (read+write) accesses (Count)
system.cpu.dcache.demandAccesses::total      13656581                       # number of demand (read+write) accesses (Count)
system.cpu.dcache.overallAccesses::cpu.data     13656581                       # number of overall (read+write) accesses (Count)
system.cpu.dcache.overallAccesses::total     13656581                       # number of overall (read+write) accesses (Count)
system.cpu.dcache.demandMissRate::cpu.data     0.640138                       # miss rate for demand accesses (Ratio)
system.cpu.dcache.demandMissRate::total      0.640138                       # miss rate for demand accesses (Ratio)
system.cpu.dcache.overallMissRate::cpu.data     0.640138                       # miss rate for overall accesses (Ratio)
system.cpu.dcache.overallMissRate::total     0.640138                       # miss rate for overall accesses (Ratio)
system.cpu.dcache.demandAvgMissLatency::cpu.data 68773.601356                       # average overall miss latency in ticks ((Tick/Count))
system.cpu.dcache.demandAvgMissLatency::total 68773.601356                       # average overall miss latency in ticks ((Tick/Count))
system.cpu.dcache.overallAvgMissLatency::cpu.data 68773.601356                       # average overall miss latency ((Tick/Count))
system.cpu.dcache.overallAvgMissLatency::total 68773.601356                       # average overall miss latency ((Tick/Count))
system.cpu.dcache.blockedCycles::no_mshrs    155241189                       # number of cycles access was blocked (Cycle)
system.cpu.dcache.blockedCycles::no_targets           37                       # number of cycles access was blocked (Cycle)
system.cpu.dcache.blockedCauses::no_mshrs      3408710                       # number of times access was blocked (Count)
system.cpu.dcache.blockedCauses::no_targets            1                       # number of times access was blocked (Count)
system.cpu.dcache.avgBlocked::no_mshrs      45.542504                       # average number of cycles each access was blocked ((Cycle/Count))
system.cpu.dcache.avgBlocked::no_targets           37                       # average number of cycles each access was blocked ((Cycle/Count))
system.cpu.dcache.writebacks::writebacks      2279747                       # number of writebacks (Count)
system.cpu.dcache.writebacks::total           2279747                       # number of writebacks (Count)
system.cpu.dcache.demandMshrHits::cpu.data      5306975                       # number of demand (read+write) MSHR hits (Count)
system.cpu.dcache.demandMshrHits::total       5306975                       # number of demand (read+write) MSHR hits (Count)
system.cpu.dcache.overallMshrHits::cpu.data      5306975                       # number of overall MSHR hits (Count)
system.cpu.dcache.overallMshrHits::total      5306975                       # number of overall MSHR hits (Count)
system.cpu.dcache.demandMshrMisses::cpu.data      3435118                       # number of demand (read+write) MSHR misses (Count)
system.cpu.dcache.demandMshrMisses::total      3435118                       # number of demand (read+write) MSHR misses (Count)
system.cpu.dcache.overallMshrMisses::cpu.data      3435118                       # number of overall MSHR misses (Count)
system.cpu.dcache.overallMshrMisses::total      3435118                       # number of overall MSHR misses (Count)
system.cpu.dcache.demandMshrMissLatency::cpu.data 322007637500                       # number of demand (read+write) MSHR miss ticks (Tick)
system.cpu.dcache.demandMshrMissLatency::total 322007637500                       # number of demand (read+write) MSHR miss ticks (Tick)
system.cpu.dcache.overallMshrMissLatency::cpu.data 322007637500                       # number of overall MSHR miss ticks (Tick)
system.cpu.dcache.overallMshrMissLatency::total 322007637500                       # number of overall MSHR miss ticks (Tick)
system.cpu.dcache.demandMshrMissRate::cpu.data     0.251536                       # mshr miss ratio for demand accesses (Ratio)
system.cpu.dcache.demandMshrMissRate::total     0.251536                       # mshr miss ratio for demand accesses (Ratio)
system.cpu.dcache.overallMshrMissRate::cpu.data     0.251536                       # mshr miss ratio for overall accesses (Ratio)
system.cpu.dcache.overallMshrMissRate::total     0.251536                       # mshr miss ratio for overall accesses (Ratio)
system.cpu.dcache.demandAvgMshrMissLatency::cpu.data 93739.905732                       # average overall mshr miss latency ((Tick/Count))
system.cpu.dcache.demandAvgMshrMissLatency::total 93739.905732                       # average overall mshr miss latency ((Tick/Count))
system.cpu.dcache.overallAvgMshrMissLatency::cpu.data 93739.905732                       # average overall mshr miss latency ((Tick/Count))
system.cpu.dcache.overallAvgMshrMissLatency::total 93739.905732                       # average overall mshr miss latency ((Tick/Count))
system.cpu.dcache.replacements                3435116                       # number of replacements (Count)
system.cpu.dcache.ReadReq.hits::cpu.data       358917                       # number of ReadReq hits (Count)
system.cpu.dcache.ReadReq.hits::total          358917                       # number of ReadReq hits (Count)
system.cpu.dcache.ReadReq.misses::cpu.data      8742093                       # number of ReadReq misses (Count)
system.cpu.dcache.ReadReq.misses::total       8742093                       # number of ReadReq misses (Count)
system.cpu.dcache.ReadReq.missLatency::cpu.data 601225219000                       # number of ReadReq miss ticks (Tick)
system.cpu.dcache.ReadReq.missLatency::total 601225219000                       # number of ReadReq miss ticks (Tick)
system.cpu.dcache.ReadReq.accesses::cpu.data      9101010                       # number of ReadReq accesses(hits+misses) (Count)
system.cpu.dcache.ReadReq.accesses::total      9101010                       # number of ReadReq accesses(hits+misses) (Count)
system.cpu.dcache.ReadReq.missRate::cpu.data     0.960563                       # miss rate for ReadReq accesses (Ratio)
system.cpu.dcache.ReadReq.missRate::total     0.960563                       # miss rate for ReadReq accesses (Ratio)
system.cpu.dcache.ReadReq.avgMissLatency::cpu.data 68773.601356                       # average ReadReq miss latency ((Tick/Count))
system.cpu.dcache.ReadReq.avgMissLatency::total 68773.601356                       # average ReadReq miss latency ((Tick/Count))
system.cpu.dcache.ReadReq.mshrHits::cpu.data      5306975                       # number of ReadReq MSHR hits (Count)
system.cpu.dcache.ReadReq.mshrHits::total      5306975                       # number of ReadReq MSHR hits (Count)
system.cpu.dcache.ReadReq.mshrMisses::cpu.data      3435118                       # number of ReadReq MSHR misses (Count)
system.cpu.dcache.ReadReq.mshrMisses::total      3435118                       # number of ReadReq MSHR misses (Count)
system.cpu.dcache.ReadReq.mshrMissLatency::cpu.data 322007637500                       # number of ReadReq MSHR miss ticks (Tick)
system.cpu.dcache.ReadReq.mshrMissLatency::total 322007637500                       # number of ReadReq MSHR miss ticks (Tick)
system.cpu.dcache.ReadReq.mshrMissRate::cpu.data     0.377444                       # mshr miss rate for ReadReq accesses (Ratio)
system.cpu.dcache.ReadReq.mshrMissRate::total     0.377444                       # mshr miss rate for ReadReq accesses (Ratio)
system.cpu.dcache.ReadReq.avgMshrMissLatency::cpu.data 93739.905732                       # average ReadReq mshr miss latency ((Tick/Count))
system.cpu.dcache.ReadReq.avgMshrMissLatency::total 93739.905732                       # average ReadReq mshr miss latency ((Tick/Count))
system.cpu.dcache.WriteReq.hits::cpu.data      4555571                       # number of WriteReq hits (Count)
system.cpu.dcache.WriteReq.hits::total        4555571                       # number of WriteReq hits (Count)
system.cpu.dcache.WriteReq.accesses::cpu.data      4555571                       # number of WriteReq accesses(hits+misses) (Count)
system.cpu.dcache.WriteReq.accesses::total      4555571                       # number of WriteReq accesses(hits+misses) (Count)
system.cpu.dcache.power_state.pwrStateResidencyTicks::UNDEFINED  82497939500                       # Cumulative time (in ticks) in various power states (Tick)
system.cpu.dcache.tags.tagsInUse                 1024                       # Average ticks per tags in use ((Tick/Count))
system.cpu.dcache.tags.totalRefs              8403658                       # Total number of references to valid blocks. (Count)
system.cpu.dcache.tags.sampledRefs            3435116                       # Sample count of references to valid blocks. (Count)
system.cpu.dcache.tags.avgRefs               2.446397                       # Average number of references to valid blocks. ((Count/Count))
system.cpu.dcache.tags.warmupTick                   0                       # The tick when the warmup percentage was hit. (Tick)
system.cpu.dcache.tags.occupancies::cpu.data         1024                       # Average occupied blocks per tick, per requestor ((Count/Tick))
system.cpu.dcache.tags.avgOccs::cpu.data            1                       # Average percentage of cache occupancy ((Ratio/Tick))
system.cpu.dcache.tags.avgOccs::total               1                       # Average percentage of cache occupancy ((Ratio/Tick))
system.cpu.dcache.tags.occupanciesTaskId::1024         1024                       # Occupied blocks per task id (Count)
system.cpu.dcache.tags.ageTaskId_1024::0          418                       # Occupied blocks per task id, per block age (Count)
system.cpu.dcache.tags.ageTaskId_1024::1          606                       # Occupied blocks per task id, per block age (Count)
system.cpu.dcache.tags.ratioOccsTaskId::1024            1                       # Ratio of occupied blocks and all blocks, per task id (Ratio)
system.cpu.dcache.tags.tagAccesses           58061440                       # Number of tag accesses (Count)
system.cpu.dcache.tags.dataAccesses          58061440                       # Number of data accesses (Count)
system.cpu.dcache.tags.power_state.pwrStateResidencyTicks::UNDEFINED  82497939500                       # Cumulative time (in ticks) in various power states (Tick)
system.cpu.decode.idleCycles                  2045523                       # Number of cycles decode is idle (Cycle)
system.cpu.decode.blockedCycles             152743194                       # Number of cycles decode is blocked (Cycle)
system.cpu.decode.runCycles                   3133844                       # Number of cycles decode is running (Cycle)
system.cpu.decode.unblockCycles               5054068                       # Number of cycles decode is unblocking (Cycle)
system.cpu.decode.squashCycles                  23599                       # Number of cycles decode is squashing (Cycle)
system.cpu.decode.branchResolved              4583668                       # Number of times decode resolved a branch (Count)
system.cpu.decode.branchMispred                     3                       # Number of times decode detected a branch misprediction (Count)
system.cpu.decode.decodedInsts               64362745                       # Number of instructions handled by decode (Count)
system.cpu.fetch.icacheStallCycles            9300555                       # Number of cycles fetch is stalled on an Icache miss (Cycle)
system.cpu.fetch.insts                       60408131                       # Number of instructions fetch has processed (Count)
system.cpu.fetch.branches                     4657440                       # Number of branches that fetch encountered (Count)
system.cpu.fetch.predictedBranches            4635134                       # Number of branches that fetch has predicted taken (Count)
system.cpu.fetch.cycles                     153676072                       # Number of cycles fetch has run and was not squashing or blocked (Cycle)
system.cpu.fetch.squashCycles                   47202                       # Number of cycles fetch has spent squashing (Cycle)
system.cpu.fetch.cacheLines                   9295154                       # Number of cache lines fetched (Count)
system.cpu.fetch.icacheSquashes                  7498                       # Number of outstanding Icache misses that were squashed (Count)
system.cpu.fetch.nisnDist::samples          163000228                       # Number of instructions fetched each cycle (Total) (Count)
system.cpu.fetch.nisnDist::mean              0.398994                       # Number of instructions fetched each cycle (Total) (Count)
system.cpu.fetch.nisnDist::stdev             1.452909                       # Number of instructions fetched each cycle (Total) (Count)
system.cpu.fetch.nisnDist::underflows               0      0.00%      0.00% # Number of instructions fetched each cycle (Total) (Count)
system.cpu.fetch.nisnDist::0                148200140     90.92%     90.92% # Number of instructions fetched each cycle (Total) (Count)
system.cpu.fetch.nisnDist::1                   892684      0.55%     91.47% # Number of instructions fetched each cycle (Total) (Count)
system.cpu.fetch.nisnDist::2                   872051      0.53%     92.00% # Number of instructions fetched each cycle (Total) (Count)
system.cpu.fetch.nisnDist::3                  7585585      4.65%     96.66% # Number of instructions fetched each cycle (Total) (Count)
system.cpu.fetch.nisnDist::4                   387288      0.24%     96.89% # Number of instructions fetched each cycle (Total) (Count)
system.cpu.fetch.nisnDist::5                   420472      0.26%     97.15% # Number of instructions fetched each cycle (Total) (Count)
system.cpu.fetch.nisnDist::6                   379705      0.23%     97.39% # Number of instructions fetched each cycle (Total) (Count)
system.cpu.fetch.nisnDist::7                   385526      0.24%     97.62% # Number of instructions fetched each cycle (Total) (Count)
system.cpu.fetch.nisnDist::8                  3876777      2.38%    100.00% # Number of instructions fetched each cycle (Total) (Count)
system.cpu.fetch.nisnDist::overflows                0      0.00%    100.00% # Number of instructions fetched each cycle (Total) (Count)
system.cpu.fetch.nisnDist::min_value                0                       # Number of instructions fetched each cycle (Total) (Count)
system.cpu.fetch.nisnDist::max_value                8                       # Number of instructions fetched each cycle (Total) (Count)
system.cpu.fetch.nisnDist::total            163000228                       # Number of instructions fetched each cycle (Total) (Count)
system.cpu.fetch.branchRate                  0.028573                       # Number of branch fetches per cycle (Ratio)
system.cpu.fetch.rate                        0.370596                       # Number of inst fetches per cycle ((Count/Cycle))
system.cpu.icache.demandHits::cpu.inst        9295131                       # number of demand (read+write) hits (Count)
system.cpu.icache.demandHits::total           9295131                       # number of demand (read+write) hits (Count)
system.cpu.icache.overallHits::cpu.inst       9295131                       # number of overall hits (Count)
system.cpu.icache.overallHits::total          9295131                       # number of overall hits (Count)
system.cpu.icache.demandMisses::cpu.inst           23                       # number of demand (read+write) misses (Count)
system.cpu.icache.demandMisses::total              23                       # number of demand (read+write) misses (Count)
system.cpu.icache.overallMisses::cpu.inst           23                       # number of overall misses (Count)
system.cpu.icache.overallMisses::total             23                       # number of overall misses (Count)
system.cpu.icache.demandMissLatency::cpu.inst      2253500                       # number of demand (read+write) miss ticks (Tick)
system.cpu.icache.demandMissLatency::total      2253500                       # number of demand (read+write) miss ticks (Tick)
system.cpu.icache.overallMissLatency::cpu.inst      2253500                       # number of overall miss ticks (Tick)
system.cpu.icache.overallMissLatency::total      2253500                       # number of overall miss ticks (Tick)
system.cpu.icache.demandAccesses::cpu.inst      9295154                       # number of demand (read+write) accesses (Count)
system.cpu.icache.demandAccesses::total       9295154                       # number of demand (read+write) accesses (Count)
system.cpu.icache.overallAccesses::cpu.inst      9295154                       # number of overall (read+write) accesses (Count)
system.cpu.icache.overallAccesses::total      9295154                       # number of overall (read+write) accesses (Count)
system.cpu.icache.demandMissRate::cpu.inst     0.000002                       # miss rate for demand accesses (Ratio)
system.cpu.icache.demandMissRate::total      0.000002                       # miss rate for demand accesses (Ratio)
system.cpu.icache.overallMissRate::cpu.inst     0.000002                       # miss rate for overall accesses (Ratio)
system.cpu.icache.overallMissRate::total     0.000002                       # miss rate for overall accesses (Ratio)
system.cpu.icache.demandAvgMissLatency::cpu.inst 97978.260870                       # average overall miss latency in ticks ((Tick/Count))
system.cpu.icache.demandAvgMissLatency::total 97978.260870                       # average overall miss latency in ticks ((Tick/Count))
system.cpu.icache.overallAvgMissLatency::cpu.inst 97978.260870                       # average overall miss latency ((Tick/Count))
system.cpu.icache.overallAvgMissLatency::total 97978.260870                       # average overall miss latency ((Tick/Count))
system.cpu.icache.blockedCycles::no_mshrs            0                       # number of cycles access was blocked (Cycle)
system.cpu.icache.blockedCycles::no_targets            0                       # number of cycles access was blocked (Cycle)
system.cpu.icache.blockedCauses::no_mshrs            0                       # number of times access was blocked (Count)
system.cpu.icache.blockedCauses::no_targets            0                       # number of times access was blocked (Count)
system.cpu.icache.avgBlocked::no_mshrs            nan                       # average number of cycles each access was blocked ((Cycle/Count))
system.cpu.icache.avgBlocked::no_targets          nan                       # average number of cycles each access was blocked ((Cycle/Count))
system.cpu.icache.writebacks::writebacks           24                       # number of writebacks (Count)
system.cpu.icache.writebacks::total                24                       # number of writebacks (Count)
system.cpu.icache.demandMshrMisses::cpu.inst           23                       # number of demand (read+write) MSHR misses (Count)
system.cpu.icache.demandMshrMisses::total           23                       # number of demand (read+write) MSHR misses (Count)
system.cpu.icache.overallMshrMisses::cpu.inst           23                       # number of overall MSHR misses (Count)
system.cpu.icache.overallMshrMisses::total           23                       # number of overall MSHR misses (Count)
system.cpu.icache.demandMshrMissLatency::cpu.inst      2229500                       # number of demand (read+write) MSHR miss ticks (Tick)
system.cpu.icache.demandMshrMissLatency::total      2229500                       # number of demand (read+write) MSHR miss ticks (Tick)
system.cpu.icache.overallMshrMissLatency::cpu.inst      2229500                       # number of overall MSHR miss ticks (Tick)
system.cpu.icache.overallMshrMissLatency::total      2229500                       # number of overall MSHR miss ticks (Tick)
system.cpu.icache.demandMshrMissRate::cpu.inst     0.000002                       # mshr miss ratio for demand accesses (Ratio)
system.cpu.icache.demandMshrMissRate::total     0.000002                       # mshr miss ratio for demand accesses (Ratio)
system.cpu.icache.overallMshrMissRate::cpu.inst     0.000002                       # mshr miss ratio for overall accesses (Ratio)
system.cpu.icache.overallMshrMissRate::total     0.000002                       # mshr miss ratio for overall accesses (Ratio)
system.cpu.icache.demandAvgMshrMissLatency::cpu.inst 96934.782609                       # average overall mshr miss latency ((Tick/Count))
system.cpu.icache.demandAvgMshrMissLatency::total 96934.782609                       # average overall mshr miss latency ((Tick/Count))
system.cpu.icache.overallAvgMshrMissLatency::cpu.inst 96934.782609                       # average overall mshr miss latency ((Tick/Count))
system.cpu.icache.overallAvgMshrMissLatency::total 96934.782609                       # average overall mshr miss latency ((Tick/Count))
system.cpu.icache.replacements                     24                       # number of replacements (Count)
system.cpu.icache.ReadReq.hits::cpu.inst      9295131                       # number of ReadReq hits (Count)
system.cpu.icache.ReadReq.hits::total         9295131                       # number of ReadReq hits (Count)
system.cpu.icache.ReadReq.misses::cpu.inst           23                       # number of ReadReq misses (Count)
system.cpu.icache.ReadReq.misses::total            23                       # number of ReadReq misses (Count)
system.cpu.icache.ReadReq.missLatency::cpu.inst      2253500                       # number of ReadReq miss ticks (Tick)
system.cpu.icache.ReadReq.missLatency::total      2253500                       # number of ReadReq miss ticks (Tick)
system.cpu.icache.ReadReq.accesses::cpu.inst      9295154                       # number of ReadReq accesses(hits+misses) (Count)
system.cpu.icache.ReadReq.accesses::total      9295154                       # number of ReadReq accesses(hits+misses) (Count)
system.cpu.icache.ReadReq.missRate::cpu.inst     0.000002                       # miss rate for ReadReq accesses (Ratio)
system.cpu.icache.ReadReq.missRate::total     0.000002                       # miss rate for ReadReq accesses (Ratio)
system.cpu.icache.ReadReq.avgMissLatency::cpu.inst 97978.260870                       # average ReadReq miss latency ((Tick/Count))
system.cpu.icache.ReadReq.avgMissLatency::total 97978.260870                       # average ReadReq miss latency ((Tick/Count))
system.cpu.icache.ReadReq.mshrMisses::cpu.inst           23                       # number of ReadReq MSHR misses (Count)
system.cpu.icache.ReadReq.mshrMisses::total           23                       # number of ReadReq MSHR misses (Count)
system.cpu.icache.ReadReq.mshrMissLatency::cpu.inst      2229500                       # number of ReadReq MSHR miss ticks (Tick)
system.cpu.icache.ReadReq.mshrMissLatency::total      2229500                       # number of ReadReq MSHR miss ticks (Tick)
system.cpu.icache.ReadReq.mshrMissRate::cpu.inst     0.000002                       # mshr miss rate for ReadReq accesses (Ratio)
system.cpu.icache.ReadReq.mshrMissRate::total     0.000002                       # mshr miss rate for ReadReq accesses (Ratio)
system.cpu.icache.ReadReq.avgMshrMissLatency::cpu.inst 96934.782609                       # average ReadReq mshr miss latency ((Tick/Count))
system.cpu.icache.ReadReq.avgMshrMissLatency::total 96934.782609                       # average ReadReq mshr miss latency ((Tick/Count))
system.cpu.icache.power_state.pwrStateResidencyTicks::UNDEFINED  82497939500                       # Cumulative time (in ticks) in various power states (Tick)
system.cpu.icache.tags.tagsInUse                  256                       # Average ticks per tags in use ((Tick/Count))
system.cpu.icache.tags.totalRefs                  173                       # Total number of references to valid blocks. (Count)
system.cpu.icache.tags.sampledRefs                 24                       # Sample count of references to valid blocks. (Count)
system.cpu.icache.tags.avgRefs               7.208333                       # Average number of references to valid blocks. ((Count/Count))
system.cpu.icache.tags.warmupTick                   0                       # The tick when the warmup percentage was hit. (Tick)
system.cpu.icache.tags.occupancies::cpu.inst          256                       # Average occupied blocks per tick, per requestor ((Count/Tick))
system.cpu.icache.tags.avgOccs::cpu.inst            1                       # Average percentage of cache occupancy ((Ratio/Tick))
system.cpu.icache.tags.avgOccs::total               1                       # Average percentage of cache occupancy ((Ratio/Tick))
system.cpu.icache.tags.occupanciesTaskId::1024          256                       # Occupied blocks per task id (Count)
system.cpu.icache.tags.ageTaskId_1024::4          256                       # Occupied blocks per task id, per block age (Count)
system.cpu.icache.tags.ratioOccsTaskId::1024            1                       # Ratio of occupied blocks and all blocks, per task id (Ratio)
system.cpu.icache.tags.tagAccesses           37180640                       # Number of tag accesses (Count)
system.cpu.icache.tags.dataAccesses          37180640                       # Number of data accesses (Count)
system.cpu.icache.tags.power_state.pwrStateResidencyTicks::UNDEFINED  82497939500                       # Cumulative time (in ticks) in various power states (Tick)
system.cpu.iew.idleCycles                           0                       # Number of cycles IEW is idle (Cycle)
system.cpu.iew.squashCycles                     23599                       # Number of cycles IEW is squashing (Cycle)
system.cpu.iew.blockCycles                  124796700                       # Number of cycles IEW is blocking (Cycle)
system.cpu.iew.unblockCycles                  2135305                       # Number of cycles IEW is unblocking (Cycle)
system.cpu.iew.dispatchedInsts               64127644                       # Number of instructions dispatched to IQ (Count)
system.cpu.iew.dispSquashedInsts                 9118                       # Number of squashed instructions skipped by dispatch (Count)
system.cpu.iew.dispLoadInsts                  9150130                       # Number of dispatched load instructions (Count)
system.cpu.iew.dispStoreInsts                 4569106                       # Number of dispatched store instructions (Count)
system.cpu.iew.dispNonSpecInsts                     1                       # Number of dispatched non-speculative instructions (Count)
system.cpu.iew.iqFullEvents                    964672                       # Number of times the IQ has become full, causing a stall (Count)
system.cpu.iew.lsqFullEvents                        0                       # Number of times the LSQ has become full, causing a stall (Count)
system.cpu.iew.memOrderViolationEvents              1                       # Number of memory order violations (Count)
system.cpu.iew.predictedTakenIncorrect          22956                       # Number of branches that were predicted taken incorrectly (Count)
system.cpu.iew.predictedNotTakenIncorrect           43                       # Number of branches that were predicted not taken incorrectly (Count)
system.cpu.iew.branchMispredicts                22999                       # Number of branch mispredicts detected at execute (Count)
system.cpu.iew.instsToCommit                 63914938                       # Cumulative count of insts sent to commit (Count)
system.cpu.iew.writebackCount                63910014                       # Cumulative count of insts written-back (Count)
system.cpu.iew.producerInst                  46548377                       # Number of instructions producing a value (Count)
system.cpu.iew.consumerInst                  54360190                       # Number of instructions consuming a value (Count)
system.cpu.iew.wbRate                        0.392079                       # Insts written-back per cycle ((Count/Cycle))
system.cpu.iew.wbFanout                      0.856295                       # Average fanout of values written-back ((Count/Count))
system.cpu.lsq0.forwLoads                           3                       # Number of loads that had data forwarded from stores (Count)
system.cpu.lsq0.squashedLoads                   57239                       # Number of loads squashed (Count)
system.cpu.lsq0.ignoredResponses                    0                       # Number of memory responses ignored because the instruction is squashed (Count)
system.cpu.lsq0.memOrderViolation                   1                       # Number of memory ordering violations (Count)
system.cpu.lsq0.squashedStores                  13540                       # Number of stores squashed (Count)
system.cpu.lsq0.rescheduledLoads                    0                       # Number of loads that were rescheduled (Count)
system.cpu.lsq0.blockedByCache                3395184                       # Number of times an access to memory failed due to the cache being blocked (Count)
system.cpu.lsq0.loadToUse::samples            9092890                       # Distribution of cycle latency between the first time a load is issued and its completion (Unspecified)
system.cpu.lsq0.loadToUse::mean            246.713803                       # Distribution of cycle latency between the first time a load is issued and its completion (Unspecified)
system.cpu.lsq0.loadToUse::stdev           131.503617                       # Distribution of cycle latency between the first time a load is issued and its completion (Unspecified)
system.cpu.lsq0.loadToUse::0-9                  20281      0.22%      0.22% # Distribution of cycle latency between the first time a load is issued and its completion (Unspecified)
system.cpu.lsq0.loadToUse::10-19                20461      0.23%      0.45% # Distribution of cycle latency between the first time a load is issued and its completion (Unspecified)
system.cpu.lsq0.loadToUse::20-29                37443      0.41%      0.86% # Distribution of cycle latency between the first time a load is issued and its completion (Unspecified)
system.cpu.lsq0.loadToUse::30-39                40399      0.44%      1.30% # Distribution of cycle latency between the first time a load is issued and its completion (Unspecified)
system.cpu.lsq0.loadToUse::40-49                29433      0.32%      1.63% # Distribution of cycle latency between the first time a load is issued and its completion (Unspecified)
system.cpu.lsq0.loadToUse::50-59                25951      0.29%      1.91% # Distribution of cycle latency between the first time a load is issued and its completion (Unspecified)
system.cpu.lsq0.loadToUse::60-69                49997      0.55%      2.46% # Distribution of cycle latency between the first time a load is issued and its completion (Unspecified)
system.cpu.lsq0.loadToUse::70-79                57225      0.63%      3.09% # Distribution of cycle latency between the first time a load is issued and its completion (Unspecified)
system.cpu.lsq0.loadToUse::80-89                57170      0.63%      3.72% # Distribution of cycle latency between the first time a load is issued and its completion (Unspecified)
system.cpu.lsq0.loadToUse::90-99                42312      0.47%      4.19% # Distribution of cycle latency between the first time a load is issued and its completion (Unspecified)
system.cpu.lsq0.loadToUse::100-109              45114      0.50%      4.68% # Distribution of cycle latency between the first time a load is issued and its completion (Unspecified)
system.cpu.lsq0.loadToUse::110-119              29537      0.32%      5.01% # Distribution of cycle latency between the first time a load is issued and its completion (Unspecified)
system.cpu.lsq0.loadToUse::120-129             138176      1.52%      6.53% # Distribution of cycle latency between the first time a load is issued and its completion (Unspecified)
system.cpu.lsq0.loadToUse::130-139             296524      3.26%      9.79% # Distribution of cycle latency between the first time a load is issued and its completion (Unspecified)
system.cpu.lsq0.loadToUse::140-149             920768     10.13%     19.91% # Distribution of cycle latency between the first time a load is issued and its completion (Unspecified)
system.cpu.lsq0.loadToUse::150-159             804710      8.85%     28.76% # Distribution of cycle latency between the first time a load is issued and its completion (Unspecified)
system.cpu.lsq0.loadToUse::160-169             508893      5.60%     34.36% # Distribution of cycle latency between the first time a load is issued and its completion (Unspecified)
system.cpu.lsq0.loadToUse::170-179             354721      3.90%     38.26% # Distribution of cycle latency between the first time a load is issued and its completion (Unspecified)
system.cpu.lsq0.loadToUse::180-189             287330      3.16%     41.42% # Distribution of cycle latency between the first time a load is issued and its completion (Unspecified)
system.cpu.lsq0.loadToUse::190-199             277934      3.06%     44.48% # Distribution of cycle latency between the first time a load is issued and its completion (Unspecified)
system.cpu.lsq0.loadToUse::200-209             370392      4.07%     48.55% # Distribution of cycle latency between the first time a load is issued and its completion (Unspecified)
system.cpu.lsq0.loadToUse::210-219             389681      4.29%     52.84% # Distribution of cycle latency between the first time a load is issued and its completion (Unspecified)
system.cpu.lsq0.loadToUse::220-229             271923      2.99%     55.83% # Distribution of cycle latency between the first time a load is issued and its completion (Unspecified)
system.cpu.lsq0.loadToUse::230-239             208767      2.30%     58.12% # Distribution of cycle latency between the first time a load is issued and its completion (Unspecified)
system.cpu.lsq0.loadToUse::240-249             216724      2.38%     60.51% # Distribution of cycle latency between the first time a load is issued and its completion (Unspecified)
system.cpu.lsq0.loadToUse::250-259             258058      2.84%     63.35% # Distribution of cycle latency between the first time a load is issued and its completion (Unspecified)
system.cpu.lsq0.loadToUse::260-269             466126      5.13%     68.47% # Distribution of cycle latency between the first time a load is issued and its completion (Unspecified)
system.cpu.lsq0.loadToUse::270-279             418921      4.61%     73.08% # Distribution of cycle latency between the first time a load is issued and its completion (Unspecified)
system.cpu.lsq0.loadToUse::280-289             219763      2.42%     75.50% # Distribution of cycle latency between the first time a load is issued and its completion (Unspecified)
system.cpu.lsq0.loadToUse::290-299             141454      1.56%     77.05% # Distribution of cycle latency between the first time a load is issued and its completion (Unspecified)
system.cpu.lsq0.loadToUse::overflows          2086702     22.95%    100.00% # Distribution of cycle latency between the first time a load is issued and its completion (Unspecified)
system.cpu.lsq0.loadToUse::min_value                3                       # Distribution of cycle latency between the first time a load is issued and its completion (Unspecified)
system.cpu.lsq0.loadToUse::max_value             1353                       # Distribution of cycle latency between the first time a load is issued and its completion (Unspecified)
system.cpu.lsq0.loadToUse::total              9092890                       # Distribution of cycle latency between the first time a load is issued and its completion (Unspecified)
system.cpu.mmu.alignFaults                          0                       # Number of MMU faults due to alignment restrictions (Count)
system.cpu.mmu.prefetchFaults                       0                       # Number of MMU faults due to prefetch (Count)
system.cpu.mmu.domainFaults                         0                       # Number of MMU faults due to domain restrictions (Count)
system.cpu.mmu.permsFaults                          0                       # Number of MMU faults due to permissions restrictions (Count)
system.cpu.mmu.dtb.readHits                         0                       # Read hits (Count)
system.cpu.mmu.dtb.readMisses                       0                       # Read misses (Count)
system.cpu.mmu.dtb.writeHits                        0                       # Write hits (Count)
system.cpu.mmu.dtb.writeMisses                      0                       # Write misses (Count)
system.cpu.mmu.dtb.inserts                          0                       # Number of times an entry is inserted into the TLB (Count)
system.cpu.mmu.dtb.flushTlb                         0                       # Number of times a TLB invalidation was requested (Count)
system.cpu.mmu.dtb.flushedEntries                   0                       # Number of entries that have been flushed from TLB (Count)
system.cpu.mmu.dtb.readAccesses                     0                       # Read accesses (Count)
system.cpu.mmu.dtb.writeAccesses                    0                       # Write accesses (Count)
system.cpu.mmu.dtb.hits                             0                       # Total TLB (inst and data) hits (Count)
system.cpu.mmu.dtb.misses                           0                       # Total TLB (inst and data) misses (Count)
system.cpu.mmu.dtb.accesses                         0                       # Total TLB (inst and data) accesses (Count)
system.cpu.mmu.dtb_walker.walks                     0                       # Table walker walks requested (Count)
system.cpu.mmu.dtb_walker.requestOrigin_Requested::Data            0                       # Table walker requests started/completed, data/inst (Count)
system.cpu.mmu.dtb_walker.requestOrigin_Requested::Inst            0                       # Table walker requests started/completed, data/inst (Count)
system.cpu.mmu.dtb_walker.requestOrigin_Requested::total            0                       # Table walker requests started/completed, data/inst (Count)
system.cpu.mmu.dtb_walker.requestOrigin_Completed::Data            0                       # Table walker requests started/completed, data/inst (Count)
system.cpu.mmu.dtb_walker.requestOrigin_Completed::Inst            0                       # Table walker requests started/completed, data/inst (Count)
system.cpu.mmu.dtb_walker.requestOrigin_Completed::total            0                       # Table walker requests started/completed, data/inst (Count)
system.cpu.mmu.dtb_walker.requestOrigin::total            0                       # Table walker requests started/completed, data/inst (Count)
system.cpu.mmu.dtb_walker.power_state.pwrStateResidencyTicks::UNDEFINED  82497939500                       # Cumulative time (in ticks) in various power states (Tick)
system.cpu.mmu.itb.instHits                         0                       # Inst hits (Count)
system.cpu.mmu.itb.instMisses                       0                       # Inst misses (Count)
system.cpu.mmu.itb.inserts                          0                       # Number of times an entry is inserted into the TLB (Count)
system.cpu.mmu.itb.flushTlb                         0                       # Number of times a TLB invalidation was requested (Count)
system.cpu.mmu.itb.flushedEntries                   0                       # Number of entries that have been flushed from TLB (Count)
system.cpu.mmu.itb.instAccesses                     0                       # Inst accesses (Count)
system.cpu.mmu.itb.hits                             0                       # Total TLB (inst and data) hits (Count)
[...]
system.mem_ctrls.dram.perBankWrBursts::7           50                       # Per bank write bursts (Count)
system.mem_ctrls.dram.perBankWrBursts::8           61                       # Per bank write bursts (Count)
system.mem_ctrls.dram.perBankWrBursts::9           64                       # Per bank write bursts (Count)
system.mem_ctrls.dram.perBankWrBursts::10           17                       # Per bank write bursts (Count)
system.mem_ctrls.dram.perBankWrBursts::11           21                       # Per bank write bursts (Count)
system.mem_ctrls.dram.perBankWrBursts::12           21                       # Per bank write bursts (Count)
system.mem_ctrls.dram.perBankWrBursts::13           10                       # Per bank write bursts (Count)
system.mem_ctrls.dram.perBankWrBursts::14            3                       # Per bank write bursts (Count)
system.mem_ctrls.dram.perBankWrBursts::15           36                       # Per bank write bursts (Count)
system.mem_ctrls.dram.totQLat                13540500                       # Total ticks spent queuing (Tick)
system.mem_ctrls.dram.totBusLat               2710000                       # Total ticks spent in databus transfers (Tick)
system.mem_ctrls.dram.totMemAccLat           23703000                       # Total ticks spent from burst creation until serviced by the DRAM (Tick)
system.mem_ctrls.dram.avgQLat                24982.47                       # Average queueing delay per DRAM burst ((Tick/Count))
system.mem_ctrls.dram.avgBusLat               5000.00                       # Average bus latency per DRAM burst ((Tick/Count))
system.mem_ctrls.dram.avgMemAccLat           43732.47                       # Average memory access latency per DRAM burst ((Tick/Count))
system.mem_ctrls.dram.readRowHits                 304                       # Number of row buffer hits during reads (Count)
system.mem_ctrls.dram.writeRowHits                299                       # Number of row buffer hits during writes (Count)
system.mem_ctrls.dram.readRowHitRate            56.09                       # Row buffer hit rate for reads (Ratio)
system.mem_ctrls.dram.writeRowHitRate           63.75                       # Row buffer hit rate for writes (Ratio)
system.mem_ctrls.dram.bytesPerActivate::samples          405                       # Bytes accessed per row activation (Byte)
system.mem_ctrls.dram.bytesPerActivate::mean   164.661728                       # Bytes accessed per row activation (Byte)
system.mem_ctrls.dram.bytesPerActivate::gmean   119.639060                       # Bytes accessed per row activation (Byte)
system.mem_ctrls.dram.bytesPerActivate::stdev   166.035892                       # Bytes accessed per row activation (Byte)
system.mem_ctrls.dram.bytesPerActivate::0-127          201     49.63%     49.63% # Bytes accessed per row activation (Byte)
system.mem_ctrls.dram.bytesPerActivate::128-255          119     29.38%     79.01% # Bytes accessed per row activation (Byte)
system.mem_ctrls.dram.bytesPerActivate::256-383           47     11.60%     90.62% # Bytes accessed per row activation (Byte)
system.mem_ctrls.dram.bytesPerActivate::384-511           12      2.96%     93.58% # Bytes accessed per row activation (Byte)
system.mem_ctrls.dram.bytesPerActivate::512-639           10      2.47%     96.05% # Bytes accessed per row activation (Byte)
system.mem_ctrls.dram.bytesPerActivate::640-767            9      2.22%     98.27% # Bytes accessed per row activation (Byte)
system.mem_ctrls.dram.bytesPerActivate::768-895            2      0.49%     98.77% # Bytes accessed per row activation (Byte)
system.mem_ctrls.dram.bytesPerActivate::896-1023            3      0.74%     99.51% # Bytes accessed per row activation (Byte)
system.mem_ctrls.dram.bytesPerActivate::1024-1151            2      0.49%    100.00% # Bytes accessed per row activation (Byte)
system.mem_ctrls.dram.bytesPerActivate::total          405                       # Bytes accessed per row activation (Byte)
system.mem_ctrls.dram.bytesRead                 34688                       # Total bytes read (Byte)
system.mem_ctrls.dram.bytesWritten              30016                       # Total bytes written (Byte)
system.mem_ctrls.dram.avgRdBW             1248.690581                       # Average DRAM read bandwidth in MiBytes/s ((Byte/Second))
system.mem_ctrls.dram.avgWrBW             1080.509008                       # Average DRAM write bandwidth in MiBytes/s ((Byte/Second))
system.mem_ctrls.dram.peakBW                 12800.00                       # Theoretical peak bandwidth in MiByte/s ((Byte/Second))
system.mem_ctrls.dram.busUtil                   18.20                       # Data bus utilization in percentage (Ratio)
system.mem_ctrls.dram.busUtilRead                9.76                       # Data bus utilization in percentage for reads (Ratio)
system.mem_ctrls.dram.busUtilWrite               8.44                       # Data bus utilization in percentage for writes (Ratio)
system.mem_ctrls.dram.pageHitRate               59.64                       # Row buffer hit rate, read and write combined (Ratio)
system.mem_ctrls.dram.power_state.pwrStateResidencyTicks::UNDEFINED     27779500                       # Cumulative time (in ticks) in various power states (Tick)
system.mem_ctrls.dram.rank0.actEnergy         1435140                       # Energy for activate commands per rank (pJ) (Joule)
system.mem_ctrls.dram.rank0.preEnergy          762795                       # Energy for precharge commands per rank (pJ) (Joule)
system.mem_ctrls.dram.rank0.readEnergy        1749300                       # Energy for read commands per rank (pJ) (Joule)
system.mem_ctrls.dram.rank0.writeEnergy       1231920                       # Energy for write commands per rank (pJ) (Joule)
system.mem_ctrls.dram.rank0.refreshEnergy 1843920.000000                       # Energy for refresh commands per rank (pJ) (Joule)
system.mem_ctrls.dram.rank0.actBackEnergy     12547980                       # Energy for active background per rank (pJ) (Joule)
system.mem_ctrls.dram.rank0.preBackEnergy       100800                       # Energy for precharge background per rank (pJ) (Joule)
system.mem_ctrls.dram.rank0.actPowerDownEnergy            0                       # Energy for active power-down per rank (pJ) (Joule)
system.mem_ctrls.dram.rank0.prePowerDownEnergy            0                       # Energy for precharge power-down per rank (pJ) (Joule)
system.mem_ctrls.dram.rank0.selfRefreshEnergy            0                       # Energy for self refresh per rank (pJ) (Joule)
system.mem_ctrls.dram.rank0.totalEnergy      19671855                       # Total energy per rank (pJ) (Joule)
system.mem_ctrls.dram.rank0.averagePower   708.142875                       # Core power per rank (mW) (Watt)
system.mem_ctrls.dram.rank0.totalIdleTime            0                       # Total Idle time Per DRAM Rank (Tick)
system.mem_ctrls.dram.rank0.pwrStateTime::IDLE       179500                       # Time in different power states (Tick)
system.mem_ctrls.dram.rank0.pwrStateTime::REF       780000                       # Time in different power states (Tick)
system.mem_ctrls.dram.rank0.pwrStateTime::SREF            0                       # Time in different power states (Tick)
system.mem_ctrls.dram.rank0.pwrStateTime::PRE_PDN            0                       # Time in different power states (Tick)
system.mem_ctrls.dram.rank0.pwrStateTime::ACT     26820000                       # Time in different power states (Tick)
system.mem_ctrls.dram.rank0.pwrStateTime::ACT_PDN            0                       # Time in different power states (Tick)
system.mem_ctrls.dram.rank1.actEnergy         1477980                       # Energy for activate commands per rank (pJ) (Joule)
system.mem_ctrls.dram.rank1.preEnergy          774180                       # Energy for precharge commands per rank (pJ) (Joule)
system.mem_ctrls.dram.rank1.readEnergy        2120580                       # Energy for read commands per rank (pJ) (Joule)
system.mem_ctrls.dram.rank1.writeEnergy       1216260                       # Energy for write commands per rank (pJ) (Joule)
system.mem_ctrls.dram.rank1.refreshEnergy 1843920.000000                       # Energy for refresh commands per rank (pJ) (Joule)
system.mem_ctrls.dram.rank1.actBackEnergy     12496110                       # Energy for active background per rank (pJ) (Joule)
system.mem_ctrls.dram.rank1.preBackEnergy       144480                       # Energy for precharge background per rank (pJ) (Joule)
system.mem_ctrls.dram.rank1.actPowerDownEnergy            0                       # Energy for active power-down per rank (pJ) (Joule)
system.mem_ctrls.dram.rank1.prePowerDownEnergy            0                       # Energy for precharge power-down per rank (pJ) (Joule)
system.mem_ctrls.dram.rank1.selfRefreshEnergy            0                       # Energy for self refresh per rank (pJ) (Joule)
system.mem_ctrls.dram.rank1.totalEnergy      20073510                       # Total energy per rank (pJ) (Joule)
system.mem_ctrls.dram.rank1.averagePower   722.601559                       # Core power per rank (mW) (Watt)
system.mem_ctrls.dram.rank1.totalIdleTime            0                       # Total Idle time Per DRAM Rank (Tick)
system.mem_ctrls.dram.rank1.pwrStateTime::IDLE       292250                       # Time in different power states (Tick)
system.mem_ctrls.dram.rank1.pwrStateTime::REF       780000                       # Time in different power states (Tick)
system.mem_ctrls.dram.rank1.pwrStateTime::SREF            0                       # Time in different power states (Tick)
system.mem_ctrls.dram.rank1.pwrStateTime::PRE_PDN            0                       # Time in different power states (Tick)
system.mem_ctrls.dram.rank1.pwrStateTime::ACT     26707250                       # Time in different power states (Tick)
system.mem_ctrls.dram.rank1.pwrStateTime::ACT_PDN            0                       # Time in different power states (Tick)
system.mem_ctrls.power_state.pwrStateResidencyTicks::UNDEFINED     27779500                       # Cumulative time (in ticks) in various power states (Tick)
system.membus.transDist::ReadResp                 516                       # Transaction distribution (Count)
system.membus.transDist::WritebackDirty           464                       # Transaction distribution (Count)
system.membus.transDist::CleanEvict               258                       # Transaction distribution (Count)
system.membus.transDist::ReadExReq                 27                       # Transaction distribution (Count)
system.membus.transDist::ReadExResp                27                       # Transaction distribution (Count)
system.membus.transDist::ReadSharedReq            515                       # Transaction distribution (Count)
system.membus.pktCount_system.l2.mem_side_port::system.mem_ctrls.port         1807                       # Packet count per connected requestor and responder (Count)
system.membus.pktCount::total                    1807                       # Packet count per connected requestor and responder (Count)
system.membus.pktSize_system.l2.mem_side_port::system.mem_ctrls.port        64448                       # Cumulative packet size per connected requestor and responder (Byte)
system.membus.pktSize::total                    64448                       # Cumulative packet size per connected requestor and responder (Byte)
system.membus.snoops                                0                       # Total snoops (Count)
system.membus.snoopTraffic                          0                       # Total snoop traffic (Byte)
system.membus.snoopFanout::samples                542                       # Request fanout histogram (Count)
system.membus.snoopFanout::mean                     0                       # Request fanout histogram (Count)
system.membus.snoopFanout::stdev                    0                       # Request fanout histogram (Count)
system.membus.snoopFanout::underflows               0      0.00%      0.00% # Request fanout histogram (Count)
system.membus.snoopFanout::0                      542    100.00%    100.00% # Request fanout histogram (Count)
system.membus.snoopFanout::1                        0      0.00%    100.00% # Request fanout histogram (Count)
system.membus.snoopFanout::overflows                0      0.00%    100.00% # Request fanout histogram (Count)
system.membus.snoopFanout::min_value                0                       # Request fanout histogram (Count)
system.membus.snoopFanout::max_value                0                       # Request fanout histogram (Count)
system.membus.snoopFanout::total                  542                       # Request fanout histogram (Count)
system.membus.power_state.pwrStateResidencyTicks::UNDEFINED     27779500                       # Cumulative time (in ticks) in various power states (Tick)
system.membus.reqLayer0.occupancy             3252500                       # Layer occupancy (ticks) (Tick)
system.membus.reqLayer0.utilization               0.1                       # Layer utilization (Ratio)
system.membus.respLayer1.occupancy            2922500                       # Layer occupancy (ticks) (Tick)
system.membus.respLayer1.utilization              0.1                       # Layer utilization (Ratio)
system.membus.snoop_filter.totRequests           1264                       # Total number of requests made to the snoop filter. (Count)
system.membus.snoop_filter.hitSingleRequests          722                       # Number of requests hitting in the snoop filter with a single holder of the requested data. (Count)
system.membus.snoop_filter.hitMultiRequests            0                       # Number of requests hitting in the snoop filter with multiple (>1) holders of the requested data. (Count)
system.membus.snoop_filter.totSnoops                0                       # Total number of snoops made to the snoop filter. (Count)
system.membus.snoop_filter.hitSingleSnoops            0                       # Number of snoops hitting in the snoop filter with a single holder of the requested data. (Count)
system.membus.snoop_filter.hitMultiSnoops            0                       # Number of snoops hitting in the snoop filter with multiple (>1) holders of the requested data. (Count)
system.tol2bus.transDist::ReadResp                541                       # Transaction distribution (Count)
system.tol2bus.transDist::WritebackDirty          672                       # Transaction distribution (Count)
system.tol2bus.transDist::WritebackClean          225                       # Transaction distribution (Count)
system.tol2bus.transDist::CleanEvict              396                       # Transaction distribution (Count)
system.tol2bus.transDist::ReadExReq                27                       # Transaction distribution (Count)
system.tol2bus.transDist::ReadExResp               27                       # Transaction distribution (Count)
system.tol2bus.transDist::ReadCleanReq            226                       # Transaction distribution (Count)
system.tol2bus.transDist::ReadSharedReq           314                       # Transaction distribution (Count)
system.tol2bus.pktCount_system.cpu.icache.mem_side_port::system.l2.cpu_side_port          676                       # Packet count per connected requestor and responder (Count)
system.tol2bus.pktCount_system.cpu.dcache.mem_side_port::system.l2.cpu_side_port         1027                       # Packet count per connected requestor and responder (Count)
system.tol2bus.pktCount::total                   1703                       # Packet count per connected requestor and responder (Count)
system.tol2bus.pktSize_system.cpu.icache.mem_side_port::system.l2.cpu_side_port        28800                       # Cumulative packet size per connected requestor and responder (Byte)
system.tol2bus.pktSize_system.cpu.dcache.mem_side_port::system.l2.cpu_side_port        35328                       # Cumulative packet size per connected requestor and responder (Byte)
system.tol2bus.pktSize::total                   64128                       # Cumulative packet size per connected requestor and responder (Byte)
system.tol2bus.snoops                             725                       # Total snoops (Count)
system.tol2bus.snoopTraffic                     29632                       # Total snoop traffic (Byte)
system.tol2bus.snoopFanout::samples              1292                       # Request fanout histogram (Count)
system.tol2bus.snoopFanout::mean             0.006192                       # Request fanout histogram (Count)
system.tol2bus.snoopFanout::stdev            0.078475                       # Request fanout histogram (Count)
system.tol2bus.snoopFanout::underflows              0      0.00%      0.00% # Request fanout histogram (Count)
system.tol2bus.snoopFanout::0                    1284     99.38%     99.38% # Request fanout histogram (Count)
system.tol2bus.snoopFanout::1                       8      0.62%    100.00% # Request fanout histogram (Count)
system.tol2bus.snoopFanout::2                       0      0.00%    100.00% # Request fanout histogram (Count)
system.tol2bus.snoopFanout::overflows               0      0.00%    100.00% # Request fanout histogram (Count)
system.tol2bus.snoopFanout::min_value               0                       # Request fanout histogram (Count)
system.tol2bus.snoopFanout::max_value               1                       # Request fanout histogram (Count)
system.tol2bus.snoopFanout::total                1292                       # Request fanout histogram (Count)
system.tol2bus.power_state.pwrStateResidencyTicks::UNDEFINED     27779500                       # Cumulative time (in ticks) in various power states (Tick)
system.tol2bus.reqLayer0.occupancy            1001500                       # Layer occupancy (ticks) (Tick)
system.tol2bus.reqLayer0.utilization              0.0                       # Layer utilization (Ratio)
system.tol2bus.respLayer0.occupancy            337500                       # Layer occupancy (ticks) (Tick)
system.tol2bus.respLayer0.utilization             0.0                       # Layer utilization (Ratio)
system.tol2bus.respLayer1.occupancy            514500                       # Layer occupancy (ticks) (Tick)
system.tol2bus.respLayer1.utilization             0.0                       # Layer utilization (Ratio)
system.tol2bus.snoop_filter.totRequests          1135                       # Total number of requests made to the snoop filter. (Count)
system.tol2bus.snoop_filter.hitSingleRequests          568                       # Number of requests hitting in the snoop filter with a single holder of the requested data. (Count)
system.tol2bus.snoop_filter.hitMultiRequests            0                       # Number of requests hitting in the snoop filter with multiple (>1) holders of the requested data. (Count)
system.tol2bus.snoop_filter.totSnoops               8                       # Total number of snoops made to the snoop filter. (Count)
system.tol2bus.snoop_filter.hitSingleSnoops            8                       # Number of snoops hitting in the snoop filter with a single holder of the requested data. (Count)
system.tol2bus.snoop_filter.hitMultiSnoops            0                       # Number of snoops hitting in the snoop filter with multiple (>1) holders of the requested data. (Count)
system.voltage_domain.voltage                       1                       # Voltage in Volts (Volt)
system.workload.inst.arm                            0                       # number of arm instructions executed (Count)
system.workload.inst.quiesce                        0                       # number of quiesce instructions executed (Count)

---------- End Simulation Statistics   ----------
