
---------- Begin Simulation Statistics ----------
simSeconds                                   0.020124                       # Number of seconds simulated (Second)
simTicks                                  20123585000                       # Number of ticks simulated (Tick)
finalTick                                 20123585000                       # Number of ticks from beginning of simulation (restored from checkpoints and never reset) (Tick)
simFreq                                  1000000000000                       # The number of ticks per simulated second ((Tick/Second))
hostSeconds                                    252.03                       # Real time elapsed on the host (Second)
hostTickRate                                 79844815                       # The number of ticks simulated per host second (ticks/s) ((Tick/Second))
hostMemory                                     681144                       # Number of bytes of host memory used (Byte)
simInsts                                     80725481                       # Number of instructions simulated (Count)
simOps                                       81004267                       # Number of ops (including micro ops) simulated (Count)
hostInstRate                                   320296                       # Simulator instruction rate (inst/s) ((Count/Second))
hostOpRate                                     321402                       # Simulator op (including micro ops) rate (op/s) ((Count/Second))
system.clk_domain.clock                          1000                       # Clock period in ticks (Tick)
system.cpu.numCycles                         40247171                       # Number of cpu cycles simulated (Cycle)
system.cpu.numWorkItemsStarted                      0                       # Number of work items this cpu started (Count)
system.cpu.numWorkItemsCompleted                    0                       # Number of work items this cpu completed (Count)
system.cpu.instsAdded                        81913581                       # Number of instructions added to the IQ (excludes non-spec) (Count)
system.cpu.nonSpecInstsAdded                      410                       # Number of non-speculative instructions added to the IQ (Count)
system.cpu.instsIssued                       81618415                       # Number of instructions issued (Count)
system.cpu.squashedInstsIssued                   2816                       # Number of squashed instructions issued (Count)
system.cpu.squashedInstsExamined               909723                       # Number of squashed instructions iterated over during squash; mainly for profiling (Count)
system.cpu.squashedOperandsExamined            782174                       # Number of squashed operands that are examined and possibly removed from graph (Count)
system.cpu.squashedNonSpecRemoved                 137                       # Number of squashed non-spec instructions that were removed (Count)
system.cpu.numIssuedDist::samples            40104588                       # Number of insts issued each cycle (Count)
system.cpu.numIssuedDist::mean               2.035139                       # Number of insts issued each cycle (Count)
system.cpu.numIssuedDist::stdev              2.629364                       # Number of insts issued each cycle (Count)
system.cpu.numIssuedDist::underflows                0      0.00%      0.00% # Number of insts issued each cycle (Count)
system.cpu.numIssuedDist::0                  21230700     52.94%     52.94% # Number of insts issued each cycle (Count)
system.cpu.numIssuedDist::1                   2359573      5.88%     58.82% # Number of insts issued each cycle (Count)
system.cpu.numIssuedDist::2                   2234203      5.57%     64.39% # Number of insts issued each cycle (Count)
system.cpu.numIssuedDist::3                   2664953      6.65%     71.04% # Number of insts issued each cycle (Count)
system.cpu.numIssuedDist::4                   2979251      7.43%     78.47% # Number of insts issued each cycle (Count)
system.cpu.numIssuedDist::5                   2751219      6.86%     85.33% # Number of insts issued each cycle (Count)
system.cpu.numIssuedDist::6                   2172978      5.42%     90.74% # Number of insts issued each cycle (Count)
system.cpu.numIssuedDist::7                   1609078      4.01%     94.76% # Number of insts issued each cycle (Count)
system.cpu.numIssuedDist::8                   2102633      5.24%    100.00% # Number of insts issued each cycle (Count)
system.cpu.numIssuedDist::overflows                 0      0.00%    100.00% # Number of insts issued each cycle (Count)
system.cpu.numIssuedDist::min_value                 0                       # Number of insts issued each cycle (Count)
system.cpu.numIssuedDist::max_value                 8                       # Number of insts issued each cycle (Count)
system.cpu.numIssuedDist::total              40104588                       # Number of insts issued each cycle (Count)
system.cpu.statFuBusy::No_OpClass                   0      0.00%      0.00% # attempts to use FU when none available (Count)
system.cpu.statFuBusy::IntAlu                  237664     13.35%     13.35% # attempts to use FU when none available (Count)
system.cpu.statFuBusy::IntMult                   2916      0.16%     13.51% # attempts to use FU when none available (Count)
system.cpu.statFuBusy::IntDiv                    1171      0.07%     13.58% # attempts to use FU when none available (Count)
system.cpu.statFuBusy::FloatAdd                     0      0.00%     13.58% # attempts to use FU when none available (Count)
system.cpu.statFuBusy::FloatCmp                     0      0.00%     13.58% # attempts to use FU when none available (Count)
system.cpu.statFuBusy::FloatCvt                     0      0.00%     13.58% # attempts to use FU when none available (Count)
system.cpu.statFuBusy::FloatMult                    0      0.00%     13.58% # attempts to use FU when none available (Count)
system.cpu.statFuBusy::FloatMultAcc                 0      0.00%     13.58% # attempts to use FU when none available (Count)
system.cpu.statFuBusy::FloatDiv                     0      0.00%     13.58% # attempts to use FU when none available (Count)
system.cpu.statFuBusy::FloatMisc                    0      0.00%     13.58% # attempts to use FU when none available (Count)
system.cpu.statFuBusy::FloatSqrt                    0      0.00%     13.58% # attempts to use FU when none available (Count)
system.cpu.statFuBusy::SimdAdd                   3490      0.20%     13.77% # attempts to use FU when none available (Count)
system.cpu.statFuBusy::SimdAddAcc                   0      0.00%     13.77% # attempts to use FU when none available (Count)
system.cpu.statFuBusy::SimdAlu                     56      0.00%     13.78% # attempts to use FU when none available (Count)
system.cpu.statFuBusy::SimdCmp                     18      0.00%     13.78% # attempts to use FU when none available (Count)
system.cpu.statFuBusy::SimdCvt                      0      0.00%     13.78% # attempts to use FU when none available (Count)
system.cpu.statFuBusy::SimdMisc                  8573      0.48%     14.26% # attempts to use FU when none available (Count)
system.cpu.statFuBusy::SimdMult                723000     40.61%     54.87% # attempts to use FU when none available (Count)
system.cpu.statFuBusy::SimdMultAcc             764806     42.96%     97.83% # attempts to use FU when none available (Count)
system.cpu.statFuBusy::SimdShift                    0      0.00%     97.83% # attempts to use FU when none available (Count)
system.cpu.statFuBusy::SimdShiftAcc                 0      0.00%     97.83% # attempts to use FU when none available (Count)
system.cpu.statFuBusy::SimdDiv                      0      0.00%     97.83% # attempts to use FU when none available (Count)
system.cpu.statFuBusy::SimdSqrt                     0      0.00%     97.83% # attempts to use FU when none available (Count)
system.cpu.statFuBusy::SimdFloatAdd                 0      0.00%     97.83% # attempts to use FU when none available (Count)
system.cpu.statFuBusy::SimdFloatAlu                 0      0.00%     97.83% # attempts to use FU when none available (Count)
system.cpu.statFuBusy::SimdFloatCmp                 0      0.00%     97.83% # attempts to use FU when none available (Count)
system.cpu.statFuBusy::SimdFloatCvt                 0      0.00%     97.83% # attempts to use FU when none available (Count)
system.cpu.statFuBusy::SimdFloatDiv                 0      0.00%     97.83% # attempts to use FU when none available (Count)
system.cpu.statFuBusy::SimdFloatMisc                0      0.00%     97.83% # attempts to use FU when none available (Count)
system.cpu.statFuBusy::SimdFloatMult                0      0.00%     97.83% # attempts to use FU when none available (Count)
system.cpu.statFuBusy::SimdFloatMultAcc             0      0.00%     97.83% # attempts to use FU when none available (Count)
system.cpu.statFuBusy::SimdFloatSqrt                0      0.00%     97.83% # attempts to use FU when none available (Count)
system.cpu.statFuBusy::SimdReduceAdd                0      0.00%     97.83% # attempts to use FU when none available (Count)
system.cpu.statFuBusy::SimdReduceAlu                0      0.00%     97.83% # attempts to use FU when none available (Count)
system.cpu.statFuBusy::SimdReduceCmp                0      0.00%     97.83% # attempts to use FU when none available (Count)
system.cpu.statFuBusy::SimdFloatReduceAdd            0      0.00%     97.83% # attempts to use FU when none available (Count)
system.cpu.statFuBusy::SimdFloatReduceCmp            0      0.00%     97.83% # attempts to use FU when none available (Count)
system.cpu.statFuBusy::SimdAes                      0      0.00%     97.83% # attempts to use FU when none available (Count)
system.cpu.statFuBusy::SimdAesMix                   0      0.00%     97.83% # attempts to use FU when none available (Count)
system.cpu.statFuBusy::SimdSha1Hash                 0      0.00%     97.83% # attempts to use FU when none available (Count)
system.cpu.statFuBusy::SimdSha1Hash2                0      0.00%     97.83% # attempts to use FU when none available (Count)
system.cpu.statFuBusy::SimdSha256Hash               0      0.00%     97.83% # attempts to use FU when none available (Count)
system.cpu.statFuBusy::SimdSha256Hash2              0      0.00%     97.83% # attempts to use FU when none available (Count)
system.cpu.statFuBusy::SimdShaSigma2                0      0.00%     97.83% # attempts to use FU when none available (Count)
system.cpu.statFuBusy::SimdShaSigma3                0      0.00%     97.83% # attempts to use FU when none available (Count)
system.cpu.statFuBusy::SimdPredAlu                  0      0.00%     97.83% # attempts to use FU when none available (Count)
system.cpu.statFuBusy::MemRead                  23691      1.33%     99.16% # attempts to use FU when none available (Count)
system.cpu.statFuBusy::MemWrite                 14981      0.84%    100.00% # attempts to use FU when none available (Count)
system.cpu.statFuBusy::FloatMemRead                 0      0.00%    100.00% # attempts to use FU when none available (Count)
system.cpu.statFuBusy::FloatMemWrite                0      0.00%    100.00% # attempts to use FU when none available (Count)
system.cpu.statFuBusy::IprAccess                    0      0.00%    100.00% # attempts to use FU when none available (Count)
system.cpu.statFuBusy::InstPrefetch                 0      0.00%    100.00% # attempts to use FU when none available (Count)
system.cpu.statIssuedInstType_0::No_OpClass          929      0.00%      0.00% # Number of instructions issued per FU type, per thread (Count)
system.cpu.statIssuedInstType_0::IntAlu      43953438     53.85%     53.85% # Number of instructions issued per FU type, per thread (Count)
system.cpu.statIssuedInstType_0::IntMult      3994570      4.89%     58.75% # Number of instructions issued per FU type, per thread (Count)
system.cpu.statIssuedInstType_0::IntDiv          2704      0.00%     58.75% # Number of instructions issued per FU type, per thread (Count)
system.cpu.statIssuedInstType_0::FloatAdd            0      0.00%     58.75% # Number of instructions issued per FU type, per thread (Count)
system.cpu.statIssuedInstType_0::FloatCmp            0      0.00%     58.75% # Number of instructions issued per FU type, per thread (Count)
system.cpu.statIssuedInstType_0::FloatCvt            0      0.00%     58.75% # Number of instructions issued per FU type, per thread (Count)
system.cpu.statIssuedInstType_0::FloatMult            0      0.00%     58.75% # Number of instructions issued per FU type, per thread (Count)
system.cpu.statIssuedInstType_0::FloatMultAcc            0      0.00%     58.75% # Number of instructions issued per FU type, per thread (Count)
system.cpu.statIssuedInstType_0::FloatDiv            0      0.00%     58.75% # Number of instructions issued per FU type, per thread (Count)
system.cpu.statIssuedInstType_0::FloatMisc            2      0.00%     58.75% # Number of instructions issued per FU type, per thread (Count)
system.cpu.statIssuedInstType_0::FloatSqrt            0      0.00%     58.75% # Number of instructions issued per FU type, per thread (Count)
system.cpu.statIssuedInstType_0::SimdAdd      3958529      4.85%     63.60% # Number of instructions issued per FU type, per thread (Count)
system.cpu.statIssuedInstType_0::SimdAddAcc            0      0.00%     63.60% # Number of instructions issued per FU type, per thread (Count)
system.cpu.statIssuedInstType_0::SimdAlu          708      0.00%     63.60% # Number of instructions issued per FU type, per thread (Count)
system.cpu.statIssuedInstType_0::SimdCmp          132      0.00%     63.60% # Number of instructions issued per FU type, per thread (Count)
system.cpu.statIssuedInstType_0::SimdCvt            0      0.00%     63.60% # Number of instructions issued per FU type, per thread (Count)
system.cpu.statIssuedInstType_0::SimdMisc      3959484      4.85%     68.45% # Number of instructions issued per FU type, per thread (Count)
system.cpu.statIssuedInstType_0::SimdMult      4047327      4.96%     73.41% # Number of instructions issued per FU type, per thread (Count)
system.cpu.statIssuedInstType_0::SimdMultAcc      5965005      7.31%     80.72% # Number of instructions issued per FU type, per thread (Count)
system.cpu.statIssuedInstType_0::SimdShift            0      0.00%     80.72% # Number of instructions issued per FU type, per thread (Count)
system.cpu.statIssuedInstType_0::SimdShiftAcc            0      0.00%     80.72% # Number of instructions issued per FU type, per thread (Count)
system.cpu.statIssuedInstType_0::SimdDiv            0      0.00%     80.72% # Number of instructions issued per FU type, per thread (Count)
system.cpu.statIssuedInstType_0::SimdSqrt            0      0.00%     80.72% # Number of instructions issued per FU type, per thread (Count)
system.cpu.statIssuedInstType_0::SimdFloatAdd            0      0.00%     80.72% # Number of instructions issued per FU type, per thread (Count)
system.cpu.statIssuedInstType_0::SimdFloatAlu            0      0.00%     80.72% # Number of instructions issued per FU type, per thread (Count)
system.cpu.statIssuedInstType_0::SimdFloatCmp            0      0.00%     80.72% # Number of instructions issued per FU type, per thread (Count)
system.cpu.statIssuedInstType_0::SimdFloatCvt            0      0.00%     80.72% # Number of instructions issued per FU type, per thread (Count)
system.cpu.statIssuedInstType_0::SimdFloatDiv            0      0.00%     80.72% # Number of instructions issued per FU type, per thread (Count)
system.cpu.statIssuedInstType_0::SimdFloatMisc            0      0.00%     80.72% # Number of instructions issued per FU type, per thread (Count)
system.cpu.statIssuedInstType_0::SimdFloatMult            0      0.00%     80.72% # Number of instructions issued per FU type, per thread (Count)
system.cpu.statIssuedInstType_0::SimdFloatMultAcc            0      0.00%     80.72% # Number of instructions issued per FU type, per thread (Count)
system.cpu.statIssuedInstType_0::SimdFloatSqrt            0      0.00%     80.72% # Number of instructions issued per FU type, per thread (Count)
system.cpu.statIssuedInstType_0::SimdReduceAdd            0      0.00%     80.72% # Number of instructions issued per FU type, per thread (Count)
system.cpu.statIssuedInstType_0::SimdReduceAlu            0      0.00%     80.72% # Number of instructions issued per FU type, per thread (Count)
system.cpu.statIssuedInstType_0::SimdReduceCmp            0      0.00%     80.72% # Number of instructions issued per FU type, per thread (Count)
system.cpu.statIssuedInstType_0::SimdFloatReduceAdd            0      0.00%     80.72% # Number of instructions issued per FU type, per thread (Count)
system.cpu.statIssuedInstType_0::SimdFloatReduceCmp            0      0.00%     80.72% # Number of instructions issued per FU type, per thread (Count)
system.cpu.statIssuedInstType_0::SimdAes            0      0.00%     80.72% # Number of instructions issued per FU type, per thread (Count)
system.cpu.statIssuedInstType_0::SimdAesMix            0      0.00%     80.72% # Number of instructions issued per FU type, per thread (Count)
system.cpu.statIssuedInstType_0::SimdSha1Hash            0      0.00%     80.72% # Number of instructions issued per FU type, per thread (Count)
system.cpu.statIssuedInstType_0::SimdSha1Hash2            0      0.00%     80.72% # Number of instructions issued per FU type, per thread (Count)
system.cpu.statIssuedInstType_0::SimdSha256Hash            0      0.00%     80.72% # Number of instructions issued per FU type, per thread (Count)
system.cpu.statIssuedInstType_0::SimdSha256Hash2            0      0.00%     80.72% # Number of instructions issued per FU type, per thread (Count)
system.cpu.statIssuedInstType_0::SimdShaSigma2            0      0.00%     80.72% # Number of instructions issued per FU type, per thread (Count)
system.cpu.statIssuedInstType_0::SimdShaSigma3            0      0.00%     80.72% # Number of instructions issued per FU type, per thread (Count)
system.cpu.statIssuedInstType_0::SimdPredAlu            0      0.00%     80.72% # Number of instructions issued per FU type, per thread (Count)
system.cpu.statIssuedInstType_0::MemRead     11549839     14.15%     94.87% # Number of instructions issued per FU type, per thread (Count)
system.cpu.statIssuedInstType_0::MemWrite      4185748      5.13%    100.00% # Number of instructions issued per FU type, per thread (Count)
system.cpu.statIssuedInstType_0::FloatMemRead            0      0.00%    100.00% # Number of instructions issued per FU type, per thread (Count)
system.cpu.statIssuedInstType_0::FloatMemWrite            0      0.00%    100.00% # Number of instructions issued per FU type, per thread (Count)
system.cpu.statIssuedInstType_0::IprAccess            0      0.00%    100.00% # Number of instructions issued per FU type, per thread (Count)
system.cpu.statIssuedInstType_0::InstPrefetch            0      0.00%    100.00% # Number of instructions issued per FU type, per thread (Count)
system.cpu.statIssuedInstType_0::total       81618415                       # Number of instructions issued per FU type, per thread (Count)
system.cpu.issueRate                         2.027929                       # Inst issue rate ((Count/Cycle))
system.cpu.fuBusy                             1780366                       # FU busy when requested (Count)
system.cpu.fuBusyRate                        0.021813                       # FU busy rate (busy events/executed inst) ((Count/Count))
system.cpu.intInstQueueReads                158567314                       # Number of integer instruction queue reads (Count)
system.cpu.intInstQueueWrites                60170099                       # Number of integer instruction queue writes (Count)
system.cpu.intInstQueueWakeupAccesses        58968562                       # Number of integer instruction queue wakeup accesses (Count)
system.cpu.fpInstQueueReads                         0                       # Number of floating instruction queue reads (Count)
system.cpu.fpInstQueueWrites                        0                       # Number of floating instruction queue writes (Count)
system.cpu.fpInstQueueWakeupAccesses                0                       # Number of floating instruction queue wakeup accesses (Count)
system.cpu.vecInstQueueReads                 46557286                       # Number of vector instruction queue reads (Count)
system.cpu.vecInstQueueWrites                22655321                       # Number of vector instruction queue writes (Count)
system.cpu.vecInstQueueWakeupAccesses        22524122                       # Number of vector instruction queue wakeup accesses (Count)
system.cpu.intAluAccesses                    59369093                       # Number of integer alu accesses (Count)
system.cpu.fpAluAccesses                            0                       # Number of floating point alu accesses (Count)
system.cpu.vecAluAccesses                    24028759                       # Number of vector alu accesses (Count)
system.cpu.numInsts                          81567241                       # Number of executed instructions (Count)
system.cpu.numLoadInsts                      11535917                       # Number of load instructions executed (Count)
system.cpu.numSquashedInsts                     51174                       # Number of squashed instructions skipped in execute (Count)
system.cpu.numSwp                                   0                       # Number of swp insts executed (Count)
system.cpu.numNop                                 471                       # Number of nop insts executed (Count)
system.cpu.numRefs                           15719868                       # Number of memory reference insts executed (Count)
system.cpu.numBranches                       12705951                       # Number of branches executed (Count)
system.cpu.numStoreInsts                      4183951                       # Number of stores executed (Count)
system.cpu.numRate                           2.026658                       # Inst execution rate ((Count/Cycle))
system.cpu.timesIdled                            1493                       # Number of times that the entire CPU went into an idle state and unscheduled itself (Count)
system.cpu.idleCycles                          142583                       # Total number of cycles that the CPU has spent unscheduled due to idling (Cycle)
system.cpu.committedInsts                    80725481                       # Number of Instructions Simulated (Count)
system.cpu.committedOps                      81004267                       # Number of Ops (including micro ops) Simulated (Count)
system.cpu.cpi                               0.498568                       # CPI: Cycles Per Instruction ((Cycle/Count))
system.cpu.totalCpi                          0.498568                       # CPI: Total CPI of All Threads ((Cycle/Count))
system.cpu.ipc                               2.005743                       # IPC: Instructions Per Cycle ((Count/Cycle))
system.cpu.totalIpc                          2.005743                       # IPC: Total IPC of All Threads ((Count/Cycle))
system.cpu.intRegfileReads                   92634706                       # Number of integer regfile reads (Count)
system.cpu.intRegfileWrites                  30830435                       # Number of integer regfile writes (Count)
system.cpu.vecRegfileReads                   52472645                       # number of vector regfile reads (Count)
system.cpu.ccRegfileReads                    45896355                       # number of cc regfile reads (Count)
system.cpu.ccRegfileWrites                   45911778                       # number of cc regfile writes (Count)
system.cpu.miscRegfileReads                  45544545                       # number of misc regfile reads (Count)
system.cpu.miscRegfileWrites                      213                       # number of misc regfile writes (Count)
system.cpu.MemDepUnit__0.insertedLoads       11549444                       # Number of loads inserted to the mem dependence unit. (Count)
system.cpu.MemDepUnit__0.insertedStores       4205657                       # Number of stores inserted to the mem dependence unit. (Count)
system.cpu.MemDepUnit__0.conflictingLoads      3807738                       # Number of conflicting loads. (Count)
system.cpu.MemDepUnit__0.conflictingStores      2148819                       # Number of conflicting stores. (Count)
system.cpu.MemDepUnit__1.insertedLoads              0                       # Number of loads inserted to the mem dependence unit. (Count)
system.cpu.MemDepUnit__1.insertedStores             0                       # Number of stores inserted to the mem dependence unit. (Count)
system.cpu.MemDepUnit__1.conflictingLoads            0                       # Number of conflicting loads. (Count)
system.cpu.MemDepUnit__1.conflictingStores            0                       # Number of conflicting stores. (Count)
system.cpu.MemDepUnit__2.insertedLoads              0                       # Number of loads inserted to the mem dependence unit. (Count)
system.cpu.MemDepUnit__2.insertedStores             0                       # Number of stores inserted to the mem dependence unit. (Count)
system.cpu.MemDepUnit__2.conflictingLoads            0                       # Number of conflicting loads. (Count)
system.cpu.MemDepUnit__2.conflictingStores            0                       # Number of conflicting stores. (Count)
system.cpu.MemDepUnit__3.insertedLoads              0                       # Number of loads inserted to the mem dependence unit. (Count)
system.cpu.MemDepUnit__3.insertedStores             0                       # Number of stores inserted to the mem dependence unit. (Count)
system.cpu.MemDepUnit__3.conflictingLoads            0                       # Number of conflicting loads. (Count)
system.cpu.MemDepUnit__3.conflictingStores            0                       # Number of conflicting stores. (Count)
system.cpu.branchPred.lookups                12877330                       # Number of BP lookups (Count)
system.cpu.branchPred.condPredicted          12802701                       # Number of conditional branches predicted (Count)
system.cpu.branchPred.condIncorrect             23707                       # Number of conditional branches incorrect (Count)
system.cpu.branchPred.BTBLookups               543102                       # Number of BTB lookups (Count)
system.cpu.branchPred.BTBUpdates                12265                       # Number of BTB updates (Count)
system.cpu.branchPred.BTBHits                  532474                       # Number of BTB hits (Count)
system.cpu.branchPred.BTBHitRatio            0.980431                       # BTB Hit Ratio (Ratio)
system.cpu.branchPred.RASUsed                   17528                       # Number of times the RAS was used to get a target. (Count)
system.cpu.branchPred.RASIncorrect                 40                       # Number of incorrect RAS predictions. (Count)
system.cpu.branchPred.indirectLookups            6761                       # Number of indirect predictor lookups. (Count)
system.cpu.branchPred.indirectHits               1334                       # Number of indirect target hits. (Count)
system.cpu.branchPred.indirectMisses             5427                       # Number of indirect misses. (Count)
system.cpu.branchPred.indirectMispredicted          671                       # Number of mispredicted indirect branches. (Count)
system.cpu.commit.commitSquashedInsts          899520                       # The number of squashed insts skipped by commit (Count)
system.cpu.commit.commitNonSpecStalls             273                       # The number of times commit has been forced to stall to communicate backwards (Count)
system.cpu.commit.branchMispredicts             23652                       # The number of times a branch was mispredicted (Count)
system.cpu.commit.numCommittedDist::samples     39970436                       # Number of insts commited each cycle (Count)
system.cpu.commit.numCommittedDist::mean     2.026608                       # Number of insts commited each cycle (Count)
system.cpu.commit.numCommittedDist::stdev     3.214423                       # Number of insts commited each cycle (Count)
system.cpu.commit.numCommittedDist::underflows            0      0.00%      0.00% # Number of insts commited each cycle (Count)
system.cpu.commit.numCommittedDist::0        24923740     62.36%     62.36% # Number of insts commited each cycle (Count)
system.cpu.commit.numCommittedDist::1         3020305      7.56%     69.91% # Number of insts commited each cycle (Count)
system.cpu.commit.numCommittedDist::2         1706588      4.27%     74.18% # Number of insts commited each cycle (Count)
system.cpu.commit.numCommittedDist::3          936552      2.34%     76.52% # Number of insts commited each cycle (Count)
system.cpu.commit.numCommittedDist::4          491832      1.23%     77.76% # Number of insts commited each cycle (Count)
system.cpu.commit.numCommittedDist::5          299215      0.75%     78.50% # Number of insts commited each cycle (Count)
system.cpu.commit.numCommittedDist::6          114625      0.29%     78.79% # Number of insts commited each cycle (Count)
system.cpu.commit.numCommittedDist::7          210505      0.53%     79.32% # Number of insts commited each cycle (Count)
system.cpu.commit.numCommittedDist::8         8267074     20.68%    100.00% # Number of insts commited each cycle (Count)
system.cpu.commit.numCommittedDist::overflows            0      0.00%    100.00% # Number of insts commited each cycle (Count)
system.cpu.commit.numCommittedDist::min_value            0                       # Number of insts commited each cycle (Count)
system.cpu.commit.numCommittedDist::max_value            8                       # Number of insts commited each cycle (Count)
system.cpu.commit.numCommittedDist::total     39970436                       # Number of insts commited each cycle (Count)
system.cpu.commit.instsCommitted             80725631                       # Number of instructions committed (Count)
system.cpu.commit.opsCommitted               81004417                       # Number of ops (including micro ops) committed (Count)
system.cpu.commit.memRefs                    15550591                       # Number of memory references committed (Count)
system.cpu.commit.loads                      11398140                       # Number of loads committed (Count)
system.cpu.commit.amos                            106                       # Number of atomic instructions committed (Count)
system.cpu.commit.membars                         114                       # Number of memory barriers committed (Count)
system.cpu.commit.branches                   12630042                       # Number of branches committed (Count)
system.cpu.commit.vectorInstructions         22493113                       # Number of committed Vector instructions. (Count)
system.cpu.commit.floating                          0                       # Number of committed floating point instructions. (Count)
system.cpu.commit.integer                    55863251                       # Number of committed integer instructions. (Count)
system.cpu.commit.functionCalls                 11001                       # Number of function calls committed. (Count)
system.cpu.commit.committedInstType_0::No_OpClass          130      0.00%      0.00% # Class of committed instruction (Count)
system.cpu.commit.committedInstType_0::IntAlu     43566612     53.78%     53.78% # Class of committed instruction (Count)
system.cpu.commit.committedInstType_0::IntMult      3978327      4.91%     58.69% # Class of committed instruction (Count)
system.cpu.commit.committedInstType_0::IntDiv         2565      0.00%     58.70% # Class of committed instruction (Count)
system.cpu.commit.committedInstType_0::FloatAdd            0      0.00%     58.70% # Class of committed instruction (Count)
system.cpu.commit.committedInstType_0::FloatCmp            0      0.00%     58.70% # Class of committed instruction (Count)
system.cpu.commit.committedInstType_0::FloatCvt            0      0.00%     58.70% # Class of committed instruction (Count)
system.cpu.commit.committedInstType_0::FloatMult            0      0.00%     58.70% # Class of committed instruction (Count)
system.cpu.commit.committedInstType_0::FloatMultAcc            0      0.00%     58.70% # Class of committed instruction (Count)
system.cpu.commit.committedInstType_0::FloatDiv            0      0.00%     58.70% # Class of committed instruction (Count)
system.cpu.commit.committedInstType_0::FloatMisc            2      0.00%     58.70% # Class of committed instruction (Count)
system.cpu.commit.committedInstType_0::FloatSqrt            0      0.00%     58.70% # Class of committed instruction (Count)
system.cpu.commit.committedInstType_0::SimdAdd      3953423      4.88%     63.58% # Class of committed instruction (Count)
system.cpu.commit.committedInstType_0::SimdAddAcc            0      0.00%     63.58% # Class of committed instruction (Count)
system.cpu.commit.committedInstType_0::SimdAlu          601      0.00%     63.58% # Class of committed instruction (Count)
system.cpu.commit.committedInstType_0::SimdCmp           97      0.00%     63.58% # Class of committed instruction (Count)
system.cpu.commit.committedInstType_0::SimdCvt            0      0.00%     63.58% # Class of committed instruction (Count)
system.cpu.commit.committedInstType_0::SimdMisc      3953477      4.88%     68.46% # Class of committed instruction (Count)
system.cpu.commit.committedInstType_0::SimdMult      4041984      4.99%     73.45% # Class of committed instruction (Count)
system.cpu.commit.committedInstType_0::SimdMultAcc      5956608      7.35%     80.80% # Class of committed instruction (Count)
system.cpu.commit.committedInstType_0::SimdShift            0      0.00%     80.80% # Class of committed instruction (Count)
system.cpu.commit.committedInstType_0::SimdShiftAcc            0      0.00%     80.80% # Class of committed instruction (Count)
system.cpu.commit.committedInstType_0::SimdDiv            0      0.00%     80.80% # Class of committed instruction (Count)
system.cpu.commit.committedInstType_0::SimdSqrt            0      0.00%     80.80% # Class of committed instruction (Count)
system.cpu.commit.committedInstType_0::SimdFloatAdd            0      0.00%     80.80% # Class of committed instruction (Count)
system.cpu.commit.committedInstType_0::SimdFloatAlu            0      0.00%     80.80% # Class of committed instruction (Count)
system.cpu.commit.committedInstType_0::SimdFloatCmp            0      0.00%     80.80% # Class of committed instruction (Count)
system.cpu.commit.committedInstType_0::SimdFloatCvt            0      0.00%     80.80% # Class of committed instruction (Count)
system.cpu.commit.committedInstType_0::SimdFloatDiv            0      0.00%     80.80% # Class of committed instruction (Count)
system.cpu.commit.committedInstType_0::SimdFloatMisc            0      0.00%     80.80% # Class of committed instruction (Count)
system.cpu.commit.committedInstType_0::SimdFloatMult            0      0.00%     80.80% # Class of committed instruction (Count)
system.cpu.commit.committedInstType_0::SimdFloatMultAcc            0      0.00%     80.80% # Class of committed instruction (Count)
system.cpu.commit.committedInstType_0::SimdFloatSqrt            0      0.00%     80.80% # Class of committed instruction (Count)
system.cpu.commit.committedInstType_0::SimdReduceAdd            0      0.00%     80.80% # Class of committed instruction (Count)
system.cpu.commit.committedInstType_0::SimdReduceAlu            0      0.00%     80.80% # Class of committed instruction (Count)
system.cpu.commit.committedInstType_0::SimdReduceCmp            0      0.00%     80.80% # Class of committed instruction (Count)
system.cpu.commit.committedInstType_0::SimdFloatReduceAdd            0      0.00%     80.80% # Class of committed instruction (Count)
system.cpu.commit.committedInstType_0::SimdFloatReduceCmp            0      0.00%     80.80% # Class of committed instruction (Count)
system.cpu.commit.committedInstType_0::SimdAes            0      0.00%     80.80% # Class of committed instruction (Count)
system.cpu.commit.committedInstType_0::SimdAesMix            0      0.00%     80.80% # Class of committed instruction (Count)
system.cpu.commit.committedInstType_0::SimdSha1Hash            0      0.00%     80.80% # Class of committed instruction (Count)
system.cpu.commit.committedInstType_0::SimdSha1Hash2            0      0.00%     80.80% # Class of committed instruction (Count)
system.cpu.commit.committedInstType_0::SimdSha256Hash            0      0.00%     80.80% # Class of committed instruction (Count)
system.cpu.commit.committedInstType_0::SimdSha256Hash2            0      0.00%     80.80% # Class of committed instruction (Count)
system.cpu.commit.committedInstType_0::SimdShaSigma2            0      0.00%     80.80% # Class of committed instruction (Count)
system.cpu.commit.committedInstType_0::SimdShaSigma3            0      0.00%     80.80% # Class of committed instruction (Count)
system.cpu.commit.committedInstType_0::SimdPredAlu            0      0.00%     80.80% # Class of committed instruction (Count)
system.cpu.commit.committedInstType_0::MemRead     11398140     14.07%     94.87% # Class of committed instruction (Count)
system.cpu.commit.committedInstType_0::MemWrite      4152451      5.13%    100.00% # Class of committed instruction (Count)
system.cpu.commit.committedInstType_0::FloatMemRead            0      0.00%    100.00% # Class of committed instruction (Count)
system.cpu.commit.committedInstType_0::FloatMemWrite            0      0.00%    100.00% # Class of committed instruction (Count)
system.cpu.commit.committedInstType_0::IprAccess            0      0.00%    100.00% # Class of committed instruction (Count)
system.cpu.commit.committedInstType_0::InstPrefetch            0      0.00%    100.00% # Class of committed instruction (Count)
system.cpu.commit.committedInstType_0::total     81004417                       # Class of committed instruction (Count)
system.cpu.commit.commitEligibleSamples       8267074                       # number cycles where commit BW limit reached (Cycle)
system.cpu.dcache.demandHits::cpu.data       13703187                       # number of demand (read+write) hits (Count)
system.cpu.dcache.demandHits::total          13703187                       # number of demand (read+write) hits (Count)
system.cpu.dcache.overallHits::cpu.data      13703187                       # number of overall hits (Count)
system.cpu.dcache.overallHits::total         13703187                       # number of overall hits (Count)
system.cpu.dcache.demandMisses::cpu.data       271398                       # number of demand (read+write) misses (Count)
system.cpu.dcache.demandMisses::total          271398                       # number of demand (read+write) misses (Count)
system.cpu.dcache.overallMisses::cpu.data       271398                       # number of overall misses (Count)
system.cpu.dcache.overallMisses::total         271398                       # number of overall misses (Count)
system.cpu.dcache.demandMissLatency::cpu.data  17758757981                       # number of demand (read+write) miss ticks (Tick)
system.cpu.dcache.demandMissLatency::total  17758757981                       # number of demand (read+write) miss ticks (Tick)
system.cpu.dcache.overallMissLatency::cpu.data  17758757981                       # number of overall miss ticks (Tick)
system.cpu.dcache.overallMissLatency::total  17758757981                       # number of overall miss ticks (Tick)
system.cpu.dcache.demandAccesses::cpu.data     13974585                       # number of demand (read+write) accesses (Count)
system.cpu.dcache.demandAccesses::total      13974585                       # number of demand (read+write) accesses (Count)
system.cpu.dcache.overallAccesses::cpu.data     13974585                       # number of overall (read+write) accesses (Count)
system.cpu.dcache.overallAccesses::total     13974585                       # number of overall (read+write) accesses (Count)
system.cpu.dcache.demandMissRate::cpu.data     0.019421                       # miss rate for demand accesses (Ratio)
system.cpu.dcache.demandMissRate::total      0.019421                       # miss rate for demand accesses (Ratio)
system.cpu.dcache.overallMissRate::cpu.data     0.019421                       # miss rate for overall accesses (Ratio)
system.cpu.dcache.overallMissRate::total     0.019421                       # miss rate for overall accesses (Ratio)
system.cpu.dcache.demandAvgMissLatency::cpu.data 65434.373065                       # average overall miss latency in ticks ((Tick/Count))
system.cpu.dcache.demandAvgMissLatency::total 65434.373065                       # average overall miss latency in ticks ((Tick/Count))
system.cpu.dcache.overallAvgMissLatency::cpu.data 65434.373065                       # average overall miss latency ((Tick/Count))
system.cpu.dcache.overallAvgMissLatency::total 65434.373065                       # average overall miss latency ((Tick/Count))
system.cpu.dcache.blockedCycles::no_mshrs       101178                       # number of cycles access was blocked (Cycle)
system.cpu.dcache.blockedCycles::no_targets         1005                       # number of cycles access was blocked (Cycle)
system.cpu.dcache.blockedCauses::no_mshrs         2116                       # number of times access was blocked (Count)
system.cpu.dcache.blockedCauses::no_targets           12                       # number of times access was blocked (Count)
system.cpu.dcache.avgBlocked::no_mshrs      47.815690                       # average number of cycles each access was blocked ((Cycle/Count))
system.cpu.dcache.avgBlocked::no_targets    83.750000                       # average number of cycles each access was blocked ((Cycle/Count))
system.cpu.dcache.writebacks::writebacks       106641                       # number of writebacks (Count)
system.cpu.dcache.writebacks::total            106641                       # number of writebacks (Count)
system.cpu.dcache.demandMshrHits::cpu.data        51032                       # number of demand (read+write) MSHR hits (Count)
system.cpu.dcache.demandMshrHits::total         51032                       # number of demand (read+write) MSHR hits (Count)
system.cpu.dcache.overallMshrHits::cpu.data        51032                       # number of overall MSHR hits (Count)
system.cpu.dcache.overallMshrHits::total        51032                       # number of overall MSHR hits (Count)
system.cpu.dcache.demandMshrMisses::cpu.data       220366                       # number of demand (read+write) MSHR misses (Count)
system.cpu.dcache.demandMshrMisses::total       220366                       # number of demand (read+write) MSHR misses (Count)
system.cpu.dcache.overallMshrMisses::cpu.data       220366                       # number of overall MSHR misses (Count)
system.cpu.dcache.overallMshrMisses::total       220366                       # number of overall MSHR misses (Count)
system.cpu.dcache.demandMshrMissLatency::cpu.data  14149348196                       # number of demand (read+write) MSHR miss ticks (Tick)
system.cpu.dcache.demandMshrMissLatency::total  14149348196                       # number of demand (read+write) MSHR miss ticks (Tick)
system.cpu.dcache.overallMshrMissLatency::cpu.data  14149348196                       # number of overall MSHR miss ticks (Tick)
system.cpu.dcache.overallMshrMissLatency::total  14149348196                       # number of overall MSHR miss ticks (Tick)
system.cpu.dcache.demandMshrMissRate::cpu.data     0.015769                       # mshr miss ratio for demand accesses (Ratio)
system.cpu.dcache.demandMshrMissRate::total     0.015769                       # mshr miss ratio for demand accesses (Ratio)
system.cpu.dcache.overallMshrMissRate::cpu.data     0.015769                       # mshr miss ratio for overall accesses (Ratio)
system.cpu.dcache.overallMshrMissRate::total     0.015769                       # mshr miss ratio for overall accesses (Ratio)
system.cpu.dcache.demandAvgMshrMissLatency::cpu.data 64208.399644                       # average overall mshr miss latency ((Tick/Count))
system.cpu.dcache.demandAvgMshrMissLatency::total 64208.399644                       # average overall mshr miss latency ((Tick/Count))
system.cpu.dcache.overallAvgMshrMissLatency::cpu.data 64208.399644                       # average overall mshr miss latency ((Tick/Count))
system.cpu.dcache.overallAvgMshrMissLatency::total 64208.399644                       # average overall mshr miss latency ((Tick/Count))
system.cpu.dcache.replacements                 219348                       # number of replacements (Count)
system.cpu.dcache.ReadReq.hits::cpu.data      9556530                       # number of ReadReq hits (Count)
system.cpu.dcache.ReadReq.hits::total         9556530                       # number of ReadReq hits (Count)
system.cpu.dcache.ReadReq.misses::cpu.data       265696                       # number of ReadReq misses (Count)
system.cpu.dcache.ReadReq.misses::total        265696                       # number of ReadReq misses (Count)
system.cpu.dcache.ReadReq.missLatency::cpu.data  17407659500                       # number of ReadReq miss ticks (Tick)
system.cpu.dcache.ReadReq.missLatency::total  17407659500                       # number of ReadReq miss ticks (Tick)
system.cpu.dcache.ReadReq.accesses::cpu.data      9822226                       # number of ReadReq accesses(hits+misses) (Count)
system.cpu.dcache.ReadReq.accesses::total      9822226                       # number of ReadReq accesses(hits+misses) (Count)
system.cpu.dcache.ReadReq.missRate::cpu.data     0.027050                       # miss rate for ReadReq accesses (Ratio)
system.cpu.dcache.ReadReq.missRate::total     0.027050                       # miss rate for ReadReq accesses (Ratio)
system.cpu.dcache.ReadReq.avgMissLatency::cpu.data 65517.205754                       # average ReadReq miss latency ((Tick/Count))
system.cpu.dcache.ReadReq.avgMissLatency::total 65517.205754                       # average ReadReq miss latency ((Tick/Count))
system.cpu.dcache.ReadReq.mshrHits::cpu.data        47582                       # number of ReadReq MSHR hits (Count)
system.cpu.dcache.ReadReq.mshrHits::total        47582                       # number of ReadReq MSHR hits (Count)
system.cpu.dcache.ReadReq.mshrMisses::cpu.data       218114                       # number of ReadReq MSHR misses (Count)
system.cpu.dcache.ReadReq.mshrMisses::total       218114                       # number of ReadReq MSHR misses (Count)
system.cpu.dcache.ReadReq.mshrMissLatency::cpu.data  14012548000                       # number of ReadReq MSHR miss ticks (Tick)
system.cpu.dcache.ReadReq.mshrMissLatency::total  14012548000                       # number of ReadReq MSHR miss ticks (Tick)
system.cpu.dcache.ReadReq.mshrMissRate::cpu.data     0.022206                       # mshr miss rate for ReadReq accesses (Ratio)
system.cpu.dcache.ReadReq.mshrMissRate::total     0.022206                       # mshr miss rate for ReadReq accesses (Ratio)
system.cpu.dcache.ReadReq.avgMshrMissLatency::cpu.data 64244.147556                       # average ReadReq mshr miss latency ((Tick/Count))
system.cpu.dcache.ReadReq.avgMshrMissLatency::total 64244.147556                       # average ReadReq mshr miss latency ((Tick/Count))
system.cpu.dcache.SwapReq.hits::cpu.data          100                       # number of SwapReq hits (Count)
system.cpu.dcache.SwapReq.hits::total             100                       # number of SwapReq hits (Count)
system.cpu.dcache.SwapReq.misses::cpu.data            6                       # number of SwapReq misses (Count)
system.cpu.dcache.SwapReq.misses::total             6                       # number of SwapReq misses (Count)
system.cpu.dcache.SwapReq.missLatency::cpu.data       387000                       # number of SwapReq miss ticks (Tick)
system.cpu.dcache.SwapReq.missLatency::total       387000                       # number of SwapReq miss ticks (Tick)
system.cpu.dcache.SwapReq.accesses::cpu.data          106                       # number of SwapReq accesses(hits+misses) (Count)
system.cpu.dcache.SwapReq.accesses::total          106                       # number of SwapReq accesses(hits+misses) (Count)
system.cpu.dcache.SwapReq.missRate::cpu.data     0.056604                       # miss rate for SwapReq accesses (Ratio)
system.cpu.dcache.SwapReq.missRate::total     0.056604                       # miss rate for SwapReq accesses (Ratio)
system.cpu.dcache.SwapReq.avgMissLatency::cpu.data        64500                       # average SwapReq miss latency ((Tick/Count))
system.cpu.dcache.SwapReq.avgMissLatency::total        64500                       # average SwapReq miss latency ((Tick/Count))
system.cpu.dcache.SwapReq.mshrMisses::cpu.data            6                       # number of SwapReq MSHR misses (Count)
system.cpu.dcache.SwapReq.mshrMisses::total            6                       # number of SwapReq MSHR misses (Count)
system.cpu.dcache.SwapReq.mshrMissLatency::cpu.data       381000                       # number of SwapReq MSHR miss ticks (Tick)
system.cpu.dcache.SwapReq.mshrMissLatency::total       381000                       # number of SwapReq MSHR miss ticks (Tick)
system.cpu.dcache.SwapReq.mshrMissRate::cpu.data     0.056604                       # mshr miss rate for SwapReq accesses (Ratio)
system.cpu.dcache.SwapReq.mshrMissRate::total     0.056604                       # mshr miss rate for SwapReq accesses (Ratio)
system.cpu.dcache.SwapReq.avgMshrMissLatency::cpu.data        63500                       # average SwapReq mshr miss latency ((Tick/Count))
system.cpu.dcache.SwapReq.avgMshrMissLatency::total        63500                       # average SwapReq mshr miss latency ((Tick/Count))
system.cpu.dcache.WriteLineReq.misses::cpu.data          131                       # number of WriteLineReq misses (Count)
system.cpu.dcache.WriteLineReq.misses::total          131                       # number of WriteLineReq misses (Count)
system.cpu.dcache.WriteLineReq.missLatency::cpu.data      4174908                       # number of WriteLineReq miss ticks (Tick)
system.cpu.dcache.WriteLineReq.missLatency::total      4174908                       # number of WriteLineReq miss ticks (Tick)
system.cpu.dcache.WriteLineReq.accesses::cpu.data          131                       # number of WriteLineReq accesses(hits+misses) (Count)
system.cpu.dcache.WriteLineReq.accesses::total          131                       # number of WriteLineReq accesses(hits+misses) (Count)
system.cpu.dcache.WriteLineReq.missRate::cpu.data            1                       # miss rate for WriteLineReq accesses (Ratio)
system.cpu.dcache.WriteLineReq.missRate::total            1                       # miss rate for WriteLineReq accesses (Ratio)
system.cpu.dcache.WriteLineReq.avgMissLatency::cpu.data 31869.526718                       # average WriteLineReq miss latency ((Tick/Count))
system.cpu.dcache.WriteLineReq.avgMissLatency::total 31869.526718                       # average WriteLineReq miss latency ((Tick/Count))
system.cpu.dcache.WriteLineReq.mshrMisses::cpu.data          131                       # number of WriteLineReq MSHR misses (Count)
system.cpu.dcache.WriteLineReq.mshrMisses::total          131                       # number of WriteLineReq MSHR misses (Count)
system.cpu.dcache.WriteLineReq.mshrMissLatency::cpu.data      4043908                       # number of WriteLineReq MSHR miss ticks (Tick)
system.cpu.dcache.WriteLineReq.mshrMissLatency::total      4043908                       # number of WriteLineReq MSHR miss ticks (Tick)
system.cpu.dcache.WriteLineReq.mshrMissRate::cpu.data            1                       # mshr miss rate for WriteLineReq accesses (Ratio)
system.cpu.dcache.WriteLineReq.mshrMissRate::total            1                       # mshr miss rate for WriteLineReq accesses (Ratio)
system.cpu.dcache.WriteLineReq.avgMshrMissLatency::cpu.data 30869.526718                       # average WriteLineReq mshr miss latency ((Tick/Count))
system.cpu.dcache.WriteLineReq.avgMshrMissLatency::total 30869.526718                       # average WriteLineReq mshr miss latency ((Tick/Count))
system.cpu.dcache.WriteReq.hits::cpu.data      4146657                       # number of WriteReq hits (Count)
system.cpu.dcache.WriteReq.hits::total        4146657                       # number of WriteReq hits (Count)
system.cpu.dcache.WriteReq.misses::cpu.data         5571                       # number of WriteReq misses (Count)
system.cpu.dcache.WriteReq.misses::total         5571                       # number of WriteReq misses (Count)
system.cpu.dcache.WriteReq.missLatency::cpu.data    346923573                       # number of WriteReq miss ticks (Tick)
system.cpu.dcache.WriteReq.missLatency::total    346923573                       # number of WriteReq miss ticks (Tick)
system.cpu.dcache.WriteReq.accesses::cpu.data      4152228                       # number of WriteReq accesses(hits+misses) (Count)
system.cpu.dcache.WriteReq.accesses::total      4152228                       # number of WriteReq accesses(hits+misses) (Count)
system.cpu.dcache.WriteReq.missRate::cpu.data     0.001342                       # miss rate for WriteReq accesses (Ratio)
system.cpu.dcache.WriteReq.missRate::total     0.001342                       # miss rate for WriteReq accesses (Ratio)
system.cpu.dcache.WriteReq.avgMissLatency::cpu.data 62273.123856                       # average WriteReq miss latency ((Tick/Count))
system.cpu.dcache.WriteReq.avgMissLatency::total 62273.123856                       # average WriteReq miss latency ((Tick/Count))
system.cpu.dcache.WriteReq.mshrHits::cpu.data         3450                       # number of WriteReq MSHR hits (Count)
system.cpu.dcache.WriteReq.mshrHits::total         3450                       # number of WriteReq MSHR hits (Count)
system.cpu.dcache.WriteReq.mshrMisses::cpu.data         2121                       # number of WriteReq MSHR misses (Count)
system.cpu.dcache.WriteReq.mshrMisses::total         2121                       # number of WriteReq MSHR misses (Count)
system.cpu.dcache.WriteReq.mshrMissLatency::cpu.data    132756288                       # number of WriteReq MSHR miss ticks (Tick)
system.cpu.dcache.WriteReq.mshrMissLatency::total    132756288                       # number of WriteReq MSHR miss ticks (Tick)
system.cpu.dcache.WriteReq.mshrMissRate::cpu.data     0.000511                       # mshr miss rate for WriteReq accesses (Ratio)
system.cpu.dcache.WriteReq.mshrMissRate::total     0.000511                       # mshr miss rate for WriteReq accesses (Ratio)
system.cpu.dcache.WriteReq.avgMshrMissLatency::cpu.data 62591.366337                       # average WriteReq mshr miss latency ((Tick/Count))
system.cpu.dcache.WriteReq.avgMshrMissLatency::total 62591.366337                       # average WriteReq mshr miss latency ((Tick/Count))
system.cpu.dcache.power_state.pwrStateResidencyTicks::UNDEFINED  20123585000                       # Cumulative time (in ticks) in various power states (Tick)
system.cpu.dcache.tags.tagsInUse          1022.145282                       # Average ticks per tags in use ((Tick/Count))
system.cpu.dcache.tags.totalRefs             13923659                       # Total number of references to valid blocks. (Count)
system.cpu.dcache.tags.sampledRefs             220372                       # Sample count of references to valid blocks. (Count)
system.cpu.dcache.tags.avgRefs              63.182523                       # Average number of references to valid blocks. ((Count/Count))
system.cpu.dcache.tags.warmupTick              253500                       # The tick when the warmup percentage was hit. (Tick)
system.cpu.dcache.tags.occupancies::cpu.data  1022.145282                       # Average occupied blocks per tick, per requestor ((Count/Tick))
system.cpu.dcache.tags.avgOccs::cpu.data     0.998189                       # Average percentage of cache occupancy ((Ratio/Tick))
system.cpu.dcache.tags.avgOccs::total        0.998189                       # Average percentage of cache occupancy ((Ratio/Tick))
system.cpu.dcache.tags.occupanciesTaskId::1024         1024                       # Occupied blocks per task id (Count)
system.cpu.dcache.tags.ageTaskId_1024::0           93                       # Occupied blocks per task id, per block age (Count)
system.cpu.dcache.tags.ageTaskId_1024::1          673                       # Occupied blocks per task id, per block age (Count)
system.cpu.dcache.tags.ageTaskId_1024::2          255                       # Occupied blocks per task id, per block age (Count)
system.cpu.dcache.tags.ageTaskId_1024::4            3                       # Occupied blocks per task id, per block age (Count)
system.cpu.dcache.tags.ratioOccsTaskId::1024            1                       # Ratio of occupied blocks and all blocks, per task id (Ratio)
system.cpu.dcache.tags.tagAccesses           56119136                       # Number of tag accesses (Count)
system.cpu.dcache.tags.dataAccesses          56119136                       # Number of data accesses (Count)
system.cpu.dcache.tags.power_state.pwrStateResidencyTicks::UNDEFINED  20123585000                       # Cumulative time (in ticks) in various power states (Tick)
system.cpu.decode.idleCycles                  3470376                       # Number of cycles decode is idle (Cycle)
system.cpu.decode.blockedCycles              26032256                       # Number of cycles decode is blocked (Cycle)
system.cpu.decode.runCycles                   8305969                       # Number of cycles decode is running (Cycle)
system.cpu.decode.unblockCycles               2270100                       # Number of cycles decode is unblocking (Cycle)
system.cpu.decode.squashCycles                  25887                       # Number of cycles decode is squashing (Cycle)
system.cpu.decode.branchResolved               508837                       # Number of times decode resolved a branch (Count)
system.cpu.decode.branchMispred                   835                       # Number of times decode detected a branch misprediction (Count)
system.cpu.decode.decodedInsts               82202416                       # Number of instructions handled by decode (Count)
system.cpu.decode.squashedInsts                  2803                       # Number of squashed instructions handled by decode (Count)
system.cpu.fetch.icacheStallCycles            5531441                       # Number of cycles fetch is stalled on an Icache miss (Cycle)
system.cpu.fetch.insts                       82108033                       # Number of instructions fetch has processed (Count)
system.cpu.fetch.branches                    12877330                       # Number of branches that fetch encountered (Count)
system.cpu.fetch.predictedBranches             551336                       # Number of branches that fetch has predicted taken (Count)
system.cpu.fetch.cycles                      34540489                       # Number of cycles fetch has run and was not squashing or blocked (Cycle)
system.cpu.fetch.squashCycles                   53396                       # Number of cycles fetch has spent squashing (Cycle)
system.cpu.fetch.miscStallCycles                  794                       # Number of cycles fetch has spent waiting on interrupts, or bad addresses, or out of MSHRs (Cycle)
system.cpu.fetch.pendingTrapStallCycles          5116                       # Number of stall cycles due to pending traps (Cycle)
system.cpu.fetch.icacheWaitRetryStallCycles           50                       # Number of stall cycles due to full MSHR (Cycle)
system.cpu.fetch.cacheLines                   5476388                       # Number of cache lines fetched (Count)
system.cpu.fetch.icacheSquashes                  6947                       # Number of outstanding Icache misses that were squashed (Count)
system.cpu.fetch.nisnDist::samples           40104588                       # Number of instructions fetched each cycle (Total) (Count)
system.cpu.fetch.nisnDist::mean              2.057005                       # Number of instructions fetched each cycle (Total) (Count)
system.cpu.fetch.nisnDist::stdev             3.444876                       # Number of instructions fetched each cycle (Total) (Count)
system.cpu.fetch.nisnDist::underflows               0      0.00%      0.00% # Number of instructions fetched each cycle (Total) (Count)
system.cpu.fetch.nisnDist::0                 29161718     72.71%     72.71% # Number of instructions fetched each cycle (Total) (Count)
system.cpu.fetch.nisnDist::1                   229627      0.57%     73.29% # Number of instructions fetched each cycle (Total) (Count)
system.cpu.fetch.nisnDist::2                    73311      0.18%     73.47% # Number of instructions fetched each cycle (Total) (Count)
system.cpu.fetch.nisnDist::3                   262160      0.65%     74.12% # Number of instructions fetched each cycle (Total) (Count)
system.cpu.fetch.nisnDist::4                   238994      0.60%     74.72% # Number of instructions fetched each cycle (Total) (Count)
system.cpu.fetch.nisnDist::5                   155484      0.39%     75.11% # Number of instructions fetched each cycle (Total) (Count)
system.cpu.fetch.nisnDist::6                    52150      0.13%     75.24% # Number of instructions fetched each cycle (Total) (Count)
system.cpu.fetch.nisnDist::7                   162846      0.41%     75.64% # Number of instructions fetched each cycle (Total) (Count)
system.cpu.fetch.nisnDist::8                  9768298     24.36%    100.00% # Number of instructions fetched each cycle (Total) (Count)
system.cpu.fetch.nisnDist::overflows                0      0.00%    100.00% # Number of instructions fetched each cycle (Total) (Count)
system.cpu.fetch.nisnDist::min_value                0                       # Number of instructions fetched each cycle (Total) (Count)
system.cpu.fetch.nisnDist::max_value                8                       # Number of instructions fetched each cycle (Total) (Count)
system.cpu.fetch.nisnDist::total             40104588                       # Number of instructions fetched each cycle (Total) (Count)
system.cpu.fetch.branchRate                  0.319956                       # Number of branch fetches per cycle (Ratio)
system.cpu.fetch.rate                        2.040095                       # Number of inst fetches per cycle ((Count/Cycle))
system.cpu.icache.demandHits::cpu.inst        5473722                       # number of demand (read+write) hits (Count)
system.cpu.icache.demandHits::total           5473722                       # number of demand (read+write) hits (Count)
system.cpu.icache.overallHits::cpu.inst       5473722                       # number of overall hits (Count)
system.cpu.icache.overallHits::total          5473722                       # number of overall hits (Count)
system.cpu.icache.demandMisses::cpu.inst         2666                       # number of demand (read+write) misses (Count)
system.cpu.icache.demandMisses::total            2666                       # number of demand (read+write) misses (Count)
system.cpu.icache.overallMisses::cpu.inst         2666                       # number of overall misses (Count)
system.cpu.icache.overallMisses::total           2666                       # number of overall misses (Count)
system.cpu.icache.demandMissLatency::cpu.inst    178405498                       # number of demand (read+write) miss ticks (Tick)
system.cpu.icache.demandMissLatency::total    178405498                       # number of demand (read+write) miss ticks (Tick)
system.cpu.icache.overallMissLatency::cpu.inst    178405498                       # number of overall miss ticks (Tick)
system.cpu.icache.overallMissLatency::total    178405498                       # number of overall miss ticks (Tick)
system.cpu.icache.demandAccesses::cpu.inst      5476388                       # number of demand (read+write) accesses (Count)
system.cpu.icache.demandAccesses::total       5476388                       # number of demand (read+write) accesses (Count)
system.cpu.icache.overallAccesses::cpu.inst      5476388                       # number of overall (read+write) accesses (Count)
system.cpu.icache.overallAccesses::total      5476388                       # number of overall (read+write) accesses (Count)
system.cpu.icache.demandMissRate::cpu.inst     0.000487                       # miss rate for demand accesses (Ratio)
system.cpu.icache.demandMissRate::total      0.000487                       # miss rate for demand accesses (Ratio)
system.cpu.icache.overallMissRate::cpu.inst     0.000487                       # miss rate for overall accesses (Ratio)
system.cpu.icache.overallMissRate::total     0.000487                       # miss rate for overall accesses (Ratio)
system.cpu.icache.demandAvgMissLatency::cpu.inst 66918.791448                       # average overall miss latency in ticks ((Tick/Count))
system.cpu.icache.demandAvgMissLatency::total 66918.791448                       # average overall miss latency in ticks ((Tick/Count))
system.cpu.icache.overallAvgMissLatency::cpu.inst 66918.791448                       # average overall miss latency ((Tick/Count))
system.cpu.icache.overallAvgMissLatency::total 66918.791448                       # average overall miss latency ((Tick/Count))
system.cpu.icache.blockedCycles::no_mshrs          710                       # number of cycles access was blocked (Cycle)
system.cpu.icache.blockedCycles::no_targets            0                       # number of cycles access was blocked (Cycle)
system.cpu.icache.blockedCauses::no_mshrs           13                       # number of times access was blocked (Count)
system.cpu.icache.blockedCauses::no_targets            0                       # number of times access was blocked (Count)
system.cpu.icache.avgBlocked::no_mshrs      54.615385                       # average number of cycles each access was blocked ((Cycle/Count))
system.cpu.icache.avgBlocked::no_targets          nan                       # average number of cycles each access was blocked ((Cycle/Count))
system.cpu.icache.writebacks::writebacks         1821                       # number of writebacks (Count)
system.cpu.icache.writebacks::total              1821                       # number of writebacks (Count)
system.cpu.icache.demandMshrHits::cpu.inst          588                       # number of demand (read+write) MSHR hits (Count)
system.cpu.icache.demandMshrHits::total           588                       # number of demand (read+write) MSHR hits (Count)
system.cpu.icache.overallMshrHits::cpu.inst          588                       # number of overall MSHR hits (Count)
system.cpu.icache.overallMshrHits::total          588                       # number of overall MSHR hits (Count)
system.cpu.icache.demandMshrMisses::cpu.inst         2078                       # number of demand (read+write) MSHR misses (Count)
system.cpu.icache.demandMshrMisses::total         2078                       # number of demand (read+write) MSHR misses (Count)
system.cpu.icache.overallMshrMisses::cpu.inst         2078                       # number of overall MSHR misses (Count)
system.cpu.icache.overallMshrMisses::total         2078                       # number of overall MSHR misses (Count)
system.cpu.icache.demandMshrMissLatency::cpu.inst    140792999                       # number of demand (read+write) MSHR miss ticks (Tick)
system.cpu.icache.demandMshrMissLatency::total    140792999                       # number of demand (read+write) MSHR miss ticks (Tick)
system.cpu.icache.overallMshrMissLatency::cpu.inst    140792999                       # number of overall MSHR miss ticks (Tick)
system.cpu.icache.overallMshrMissLatency::total    140792999                       # number of overall MSHR miss ticks (Tick)
system.cpu.icache.demandMshrMissRate::cpu.inst     0.000379                       # mshr miss ratio for demand accesses (Ratio)
system.cpu.icache.demandMshrMissRate::total     0.000379                       # mshr miss ratio for demand accesses (Ratio)
system.cpu.icache.overallMshrMissRate::cpu.inst     0.000379                       # mshr miss ratio for overall accesses (Ratio)
system.cpu.icache.overallMshrMissRate::total     0.000379                       # mshr miss ratio for overall accesses (Ratio)
system.cpu.icache.demandAvgMshrMissLatency::cpu.inst 67754.089990                       # average overall mshr miss latency ((Tick/Count))
system.cpu.icache.demandAvgMshrMissLatency::total 67754.089990                       # average overall mshr miss latency ((Tick/Count))
system.cpu.icache.overallAvgMshrMissLatency::cpu.inst 67754.089990                       # average overall mshr miss latency ((Tick/Count))
system.cpu.icache.overallAvgMshrMissLatency::total 67754.089990                       # average overall mshr miss latency ((Tick/Count))
system.cpu.icache.replacements                   1821                       # number of replacements (Count)
system.cpu.icache.ReadReq.hits::cpu.inst      5473722                       # number of ReadReq hits (Count)
system.cpu.icache.ReadReq.hits::total         5473722                       # number of ReadReq hits (Count)
system.cpu.icache.ReadReq.misses::cpu.inst         2666                       # number of ReadReq misses (Count)
system.cpu.icache.ReadReq.misses::total          2666                       # number of ReadReq misses (Count)
system.cpu.icache.ReadReq.missLatency::cpu.inst    178405498                       # number of ReadReq miss ticks (Tick)
system.cpu.icache.ReadReq.missLatency::total    178405498                       # number of ReadReq miss ticks (Tick)
system.cpu.icache.ReadReq.accesses::cpu.inst      5476388                       # number of ReadReq accesses(hits+misses) (Count)
system.cpu.icache.ReadReq.accesses::total      5476388                       # number of ReadReq accesses(hits+misses) (Count)
system.cpu.icache.ReadReq.missRate::cpu.inst     0.000487                       # miss rate for ReadReq accesses (Ratio)
system.cpu.icache.ReadReq.missRate::total     0.000487                       # miss rate for ReadReq accesses (Ratio)
system.cpu.icache.ReadReq.avgMissLatency::cpu.inst 66918.791448                       # average ReadReq miss latency ((Tick/Count))
system.cpu.icache.ReadReq.avgMissLatency::total 66918.791448                       # average ReadReq miss latency ((Tick/Count))
system.cpu.icache.ReadReq.mshrHits::cpu.inst          588                       # number of ReadReq MSHR hits (Count)
system.cpu.icache.ReadReq.mshrHits::total          588                       # number of ReadReq MSHR hits (Count)
system.cpu.icache.ReadReq.mshrMisses::cpu.inst         2078                       # number of ReadReq MSHR misses (Count)
system.cpu.icache.ReadReq.mshrMisses::total         2078                       # number of ReadReq MSHR misses (Count)
system.cpu.icache.ReadReq.mshrMissLatency::cpu.inst    140792999                       # number of ReadReq MSHR miss ticks (Tick)
system.cpu.icache.ReadReq.mshrMissLatency::total    140792999                       # number of ReadReq MSHR miss ticks (Tick)
system.cpu.icache.ReadReq.mshrMissRate::cpu.inst     0.000379                       # mshr miss rate for ReadReq accesses (Ratio)
system.cpu.icache.ReadReq.mshrMissRate::total     0.000379                       # mshr miss rate for ReadReq accesses (Ratio)
system.cpu.icache.ReadReq.avgMshrMissLatency::cpu.inst 67754.089990                       # average ReadReq mshr miss latency ((Tick/Count))
system.cpu.icache.ReadReq.avgMshrMissLatency::total 67754.089990                       # average ReadReq mshr miss latency ((Tick/Count))
system.cpu.icache.power_state.pwrStateResidencyTicks::UNDEFINED  20123585000                       # Cumulative time (in ticks) in various power states (Tick)
system.cpu.icache.tags.tagsInUse           255.805477                       # Average ticks per tags in use ((Tick/Count))
system.cpu.icache.tags.totalRefs              5475799                       # Total number of references to valid blocks. (Count)
system.cpu.icache.tags.sampledRefs               2077                       # Sample count of references to valid blocks. (Count)
system.cpu.icache.tags.avgRefs            2636.398170                       # Average number of references to valid blocks. ((Count/Count))
system.cpu.icache.tags.warmupTick               87500                       # The tick when the warmup percentage was hit. (Tick)
system.cpu.icache.tags.occupancies::cpu.inst   255.805477                       # Average occupied blocks per tick, per requestor ((Count/Tick))
system.cpu.icache.tags.avgOccs::cpu.inst     0.999240                       # Average percentage of cache occupancy ((Ratio/Tick))
system.cpu.icache.tags.avgOccs::total        0.999240                       # Average percentage of cache occupancy ((Ratio/Tick))
system.cpu.icache.tags.occupanciesTaskId::1024          256                       # Occupied blocks per task id (Count)
system.cpu.icache.tags.ageTaskId_1024::0           75                       # Occupied blocks per task id, per block age (Count)
system.cpu.icache.tags.ageTaskId_1024::1          107                       # Occupied blocks per task id, per block age (Count)
system.cpu.icache.tags.ageTaskId_1024::4           74                       # Occupied blocks per task id, per block age (Count)
system.cpu.icache.tags.ratioOccsTaskId::1024            1                       # Ratio of occupied blocks and all blocks, per task id (Ratio)
system.cpu.icache.tags.tagAccesses           21907629                       # Number of tag accesses (Count)
system.cpu.icache.tags.dataAccesses          21907629                       # Number of data accesses (Count)
system.cpu.icache.tags.power_state.pwrStateResidencyTicks::UNDEFINED  20123585000                       # Cumulative time (in ticks) in various power states (Tick)
system.cpu.iew.idleCycles                           0                       # Number of cycles IEW is idle (Cycle)
system.cpu.iew.squashCycles                     25887                       # Number of cycles IEW is squashing (Cycle)
system.cpu.iew.blockCycles                    6081538                       # Number of cycles IEW is blocking (Cycle)
system.cpu.iew.unblockCycles                   111026                       # Number of cycles IEW is unblocking (Cycle)
system.cpu.iew.dispatchedInsts               81914462                       # Number of instructions dispatched to IQ (Count)
system.cpu.iew.dispSquashedInsts                 4035                       # Number of squashed instructions skipped by dispatch (Count)
system.cpu.iew.dispLoadInsts                 11549444                       # Number of dispatched load instructions (Count)
system.cpu.iew.dispStoreInsts                 4205657                       # Number of dispatched store instructions (Count)
system.cpu.iew.dispNonSpecInsts                   404                       # Number of dispatched non-speculative instructions (Count)
system.cpu.iew.iqFullEvents                     14608                       # Number of times the IQ has become full, causing a stall (Count)
system.cpu.iew.lsqFullEvents                    34245                       # Number of times the LSQ has become full, causing a stall (Count)
system.cpu.iew.memOrderViolationEvents           1721                       # Number of memory order violations (Count)
system.cpu.iew.predictedTakenIncorrect          11731                       # Number of branches that were predicted taken incorrectly (Count)
system.cpu.iew.predictedNotTakenIncorrect        18269                       # Number of branches that were predicted not taken incorrectly (Count)
system.cpu.iew.branchMispredicts                30000                       # Number of branch mispredicts detected at execute (Count)
system.cpu.iew.instsToCommit                 81506562                       # Cumulative count of insts sent to commit (Count)
system.cpu.iew.writebackCount                81492684                       # Cumulative count of insts written-back (Count)
system.cpu.iew.producerInst                  55821597                       # Number of instructions producing a value (Count)
system.cpu.iew.consumerInst                  91677052                       # Number of instructions consuming a value (Count)
system.cpu.iew.wbRate                        2.024805                       # Insts written-back per cycle ((Count/Cycle))
system.cpu.iew.wbFanout                      0.608894                       # Average fanout of values written-back ((Count/Count))
system.cpu.lsq0.forwLoads                     1675574                       # Number of loads that had data forwarded from stores (Count)
system.cpu.lsq0.squashedLoads                  151304                       # Number of loads squashed (Count)
system.cpu.lsq0.ignoredResponses                   54                       # Number of memory responses ignored because the instruction is squashed (Count)
system.cpu.lsq0.memOrderViolation                1721                       # Number of memory ordering violations (Count)
system.cpu.lsq0.squashedStores                  53206                       # Number of stores squashed (Count)
system.cpu.lsq0.rescheduledLoads                 9248                       # Number of loads that were rescheduled (Count)
system.cpu.lsq0.blockedByCache                   2027                       # Number of times an access to memory failed due to the cache being blocked (Count)
system.cpu.lsq0.loadToUse::samples           11398140                       # Distribution of cycle latency between the first time a load is issued and its completion (Unspecified)
system.cpu.lsq0.loadToUse::mean              6.043233                       # Distribution of cycle latency between the first time a load is issued and its completion (Unspecified)
system.cpu.lsq0.loadToUse::stdev            23.299331                       # Distribution of cycle latency between the first time a load is issued and its completion (Unspecified)
system.cpu.lsq0.loadToUse::0-9               11139614     97.73%     97.73% # Distribution of cycle latency between the first time a load is issued and its completion (Unspecified)
system.cpu.lsq0.loadToUse::10-19                 3854      0.03%     97.77% # Distribution of cycle latency between the first time a load is issued and its completion (Unspecified)
system.cpu.lsq0.loadToUse::20-29                51706      0.45%     98.22% # Distribution of cycle latency between the first time a load is issued and its completion (Unspecified)
system.cpu.lsq0.loadToUse::30-39                 1127      0.01%     98.23% # Distribution of cycle latency between the first time a load is issued and its completion (Unspecified)
system.cpu.lsq0.loadToUse::40-49                  847      0.01%     98.24% # Distribution of cycle latency between the first time a load is issued and its completion (Unspecified)
[...]
system.mem_ctrls.dram.perBankWrBursts::10         6449                       # Per bank write bursts (Count)
system.mem_ctrls.dram.perBankWrBursts::11         6493                       # Per bank write bursts (Count)
system.mem_ctrls.dram.perBankWrBursts::12         5914                       # Per bank write bursts (Count)
system.mem_ctrls.dram.perBankWrBursts::13         7082                       # Per bank write bursts (Count)
system.mem_ctrls.dram.perBankWrBursts::14         5887                       # Per bank write bursts (Count)
system.mem_ctrls.dram.perBankWrBursts::15         7009                       # Per bank write bursts (Count)
system.mem_ctrls.dram.totQLat              1391676500                       # Total ticks spent queuing (Tick)
system.mem_ctrls.dram.totBusLat             862340000                       # Total ticks spent in databus transfers (Tick)
system.mem_ctrls.dram.totMemAccLat         4625451500                       # Total ticks spent from burst creation until serviced by the DRAM (Tick)
system.mem_ctrls.dram.avgQLat                 8069.19                       # Average queueing delay per DRAM burst ((Tick/Count))
system.mem_ctrls.dram.avgBusLat               5000.00                       # Average bus latency per DRAM burst ((Tick/Count))
system.mem_ctrls.dram.avgMemAccLat           26819.19                       # Average memory access latency per DRAM burst ((Tick/Count))
system.mem_ctrls.dram.readRowHits              151795                       # Number of row buffer hits during reads (Count)
system.mem_ctrls.dram.writeRowHits              84781                       # Number of row buffer hits during writes (Count)
system.mem_ctrls.dram.readRowHitRate            88.01                       # Row buffer hit rate for reads (Ratio)
system.mem_ctrls.dram.writeRowHitRate           83.93                       # Row buffer hit rate for writes (Ratio)
system.mem_ctrls.dram.bytesPerActivate::samples        36895                       # Bytes accessed per row activation (Byte)
system.mem_ctrls.dram.bytesPerActivate::mean   474.352839                       # Bytes accessed per row activation (Byte)
system.mem_ctrls.dram.bytesPerActivate::gmean   329.149501                       # Bytes accessed per row activation (Byte)
system.mem_ctrls.dram.bytesPerActivate::stdev   347.437343                       # Bytes accessed per row activation (Byte)
system.mem_ctrls.dram.bytesPerActivate::0-127         4973     13.48%     13.48% # Bytes accessed per row activation (Byte)
system.mem_ctrls.dram.bytesPerActivate::128-255         7408     20.08%     33.56% # Bytes accessed per row activation (Byte)
system.mem_ctrls.dram.bytesPerActivate::256-383         5014     13.59%     47.15% # Bytes accessed per row activation (Byte)
system.mem_ctrls.dram.bytesPerActivate::384-511         3623      9.82%     56.97% # Bytes accessed per row activation (Byte)
system.mem_ctrls.dram.bytesPerActivate::512-639         3143      8.52%     65.49% # Bytes accessed per row activation (Byte)
system.mem_ctrls.dram.bytesPerActivate::640-767         2285      6.19%     71.68% # Bytes accessed per row activation (Byte)
system.mem_ctrls.dram.bytesPerActivate::768-895         2287      6.20%     77.88% # Bytes accessed per row activation (Byte)
system.mem_ctrls.dram.bytesPerActivate::896-1023         1780      4.82%     82.70% # Bytes accessed per row activation (Byte)
system.mem_ctrls.dram.bytesPerActivate::1024-1151         6382     17.30%    100.00% # Bytes accessed per row activation (Byte)
system.mem_ctrls.dram.bytesPerActivate::total        36895                       # Bytes accessed per row activation (Byte)
system.mem_ctrls.dram.bytesRead              11037952                       # Total bytes read (Byte)
system.mem_ctrls.dram.bytesWritten            6465024                       # Total bytes written (Byte)
system.mem_ctrls.dram.avgRdBW              548.508231                       # Average DRAM read bandwidth in MiBytes/s ((Byte/Second))
system.mem_ctrls.dram.avgWrBW              321.266017                       # Average DRAM write bandwidth in MiBytes/s ((Byte/Second))
system.mem_ctrls.dram.peakBW                 12800.00                       # Theoretical peak bandwidth in MiByte/s ((Byte/Second))
system.mem_ctrls.dram.busUtil                    6.80                       # Data bus utilization in percentage (Ratio)
system.mem_ctrls.dram.busUtilRead                4.29                       # Data bus utilization in percentage for reads (Ratio)
system.mem_ctrls.dram.busUtilWrite               2.51                       # Data bus utilization in percentage for writes (Ratio)
system.mem_ctrls.dram.pageHitRate               86.50                       # Row buffer hit rate, read and write combined (Ratio)
system.mem_ctrls.dram.power_state.pwrStateResidencyTicks::UNDEFINED  20123585000                       # Cumulative time (in ticks) in various power states (Tick)
system.mem_ctrls.dram.rank0.actEnergy       129733800                       # Energy for activate commands per rank (pJ) (Joule)
system.mem_ctrls.dram.rank0.preEnergy        68936175                       # Energy for precharge commands per rank (pJ) (Joule)
system.mem_ctrls.dram.rank0.readEnergy      599824260                       # Energy for read commands per rank (pJ) (Joule)
system.mem_ctrls.dram.rank0.writeEnergy     260117820                       # Energy for write commands per rank (pJ) (Joule)
system.mem_ctrls.dram.rank0.refreshEnergy 1588229760.000000                       # Energy for refresh commands per rank (pJ) (Joule)
system.mem_ctrls.dram.rank0.actBackEnergy   7167247830                       # Energy for active background per rank (pJ) (Joule)
system.mem_ctrls.dram.rank0.preBackEnergy   1691879520                       # Energy for precharge background per rank (pJ) (Joule)
system.mem_ctrls.dram.rank0.actPowerDownEnergy            0                       # Energy for active power-down per rank (pJ) (Joule)
system.mem_ctrls.dram.rank0.prePowerDownEnergy            0                       # Energy for precharge power-down per rank (pJ) (Joule)
system.mem_ctrls.dram.rank0.selfRefreshEnergy            0                       # Energy for self refresh per rank (pJ) (Joule)
system.mem_ctrls.dram.rank0.totalEnergy   11505969165                       # Total energy per rank (pJ) (Joule)
system.mem_ctrls.dram.rank0.averagePower   571.765377                       # Core power per rank (mW) (Watt)
system.mem_ctrls.dram.rank0.totalIdleTime            0                       # Total Idle time Per DRAM Rank (Tick)
system.mem_ctrls.dram.rank0.pwrStateTime::IDLE   4332262500                       # Time in different power states (Tick)
system.mem_ctrls.dram.rank0.pwrStateTime::REF    671840000                       # Time in different power states (Tick)
system.mem_ctrls.dram.rank0.pwrStateTime::SREF            0                       # Time in different power states (Tick)
system.mem_ctrls.dram.rank0.pwrStateTime::PRE_PDN            0                       # Time in different power states (Tick)
system.mem_ctrls.dram.rank0.pwrStateTime::ACT  15119482500                       # Time in different power states (Tick)
system.mem_ctrls.dram.rank0.pwrStateTime::ACT_PDN            0                       # Time in different power states (Tick)
system.mem_ctrls.dram.rank1.actEnergy       133789320                       # Energy for activate commands per rank (pJ) (Joule)
system.mem_ctrls.dram.rank1.preEnergy        71080350                       # Energy for precharge commands per rank (pJ) (Joule)
system.mem_ctrls.dram.rank1.readEnergy      631597260                       # Energy for read commands per rank (pJ) (Joule)
system.mem_ctrls.dram.rank1.writeEnergy     267185700                       # Energy for write commands per rank (pJ) (Joule)
system.mem_ctrls.dram.rank1.refreshEnergy 1588229760.000000                       # Energy for refresh commands per rank (pJ) (Joule)
system.mem_ctrls.dram.rank1.actBackEnergy   7299219360                       # Energy for active background per rank (pJ) (Joule)
system.mem_ctrls.dram.rank1.preBackEnergy   1580745600                       # Energy for precharge background per rank (pJ) (Joule)
system.mem_ctrls.dram.rank1.actPowerDownEnergy            0                       # Energy for active power-down per rank (pJ) (Joule)
system.mem_ctrls.dram.rank1.prePowerDownEnergy            0                       # Energy for precharge power-down per rank (pJ) (Joule)
system.mem_ctrls.dram.rank1.selfRefreshEnergy            0                       # Energy for self refresh per rank (pJ) (Joule)
system.mem_ctrls.dram.rank1.totalEnergy   11571847350                       # Total energy per rank (pJ) (Joule)
system.mem_ctrls.dram.rank1.averagePower   575.039057                       # Core power per rank (mW) (Watt)
system.mem_ctrls.dram.rank1.totalIdleTime            0                       # Total Idle time Per DRAM Rank (Tick)
system.mem_ctrls.dram.rank1.pwrStateTime::IDLE   4042215250                       # Time in different power states (Tick)
system.mem_ctrls.dram.rank1.pwrStateTime::REF    671840000                       # Time in different power states (Tick)
system.mem_ctrls.dram.rank1.pwrStateTime::SREF            0                       # Time in different power states (Tick)
system.mem_ctrls.dram.rank1.pwrStateTime::PRE_PDN            0                       # Time in different power states (Tick)
system.mem_ctrls.dram.rank1.pwrStateTime::ACT  15409529750                       # Time in different power states (Tick)
system.mem_ctrls.dram.rank1.pwrStateTime::ACT_PDN            0                       # Time in different power states (Tick)
system.mem_ctrls.power_state.pwrStateResidencyTicks::UNDEFINED  20123585000                       # Cumulative time (in ticks) in various power states (Tick)
system.membus.transDist::ReadResp              171010                       # Transaction distribution (Count)
system.membus.transDist::WritebackDirty        101041                       # Transaction distribution (Count)
system.membus.transDist::CleanEvict             67412                       # Transaction distribution (Count)
system.membus.transDist::ReadExReq               1476                       # Transaction distribution (Count)
system.membus.transDist::ReadExResp              1476                       # Transaction distribution (Count)
system.membus.transDist::ReadSharedReq         171010                       # Transaction distribution (Count)
system.membus.transDist::InvalidateReq            143                       # Transaction distribution (Count)
system.membus.pktCount_system.l2.mem_side_port::system.mem_ctrls.port       513568                       # Packet count per connected requestor and responder (Count)
system.membus.pktCount::total                  513568                       # Packet count per connected requestor and responder (Count)
system.membus.pktSize_system.l2.mem_side_port::system.mem_ctrls.port     17505728                       # Cumulative packet size per connected requestor and responder (Byte)
system.membus.pktSize::total                 17505728                       # Cumulative packet size per connected requestor and responder (Byte)
system.membus.snoops                                0                       # Total snoops (Count)
system.membus.snoopTraffic                          0                       # Total snoop traffic (Byte)
system.membus.snoopFanout::samples             172629                       # Request fanout histogram (Count)
system.membus.snoopFanout::mean                     0                       # Request fanout histogram (Count)
system.membus.snoopFanout::stdev                    0                       # Request fanout histogram (Count)
system.membus.snoopFanout::underflows               0      0.00%      0.00% # Request fanout histogram (Count)
system.membus.snoopFanout::0                   172629    100.00%    100.00% # Request fanout histogram (Count)
system.membus.snoopFanout::1                        0      0.00%    100.00% # Request fanout histogram (Count)
system.membus.snoopFanout::overflows                0      0.00%    100.00% # Request fanout histogram (Count)
system.membus.snoopFanout::min_value                0                       # Request fanout histogram (Count)
system.membus.snoopFanout::max_value                0                       # Request fanout histogram (Count)
system.membus.snoopFanout::total               172629                       # Request fanout histogram (Count)
system.membus.power_state.pwrStateResidencyTicks::UNDEFINED  20123585000                       # Cumulative time (in ticks) in various power states (Tick)
system.membus.reqLayer0.occupancy           786945500                       # Layer occupancy (ticks) (Tick)
system.membus.reqLayer0.utilization               0.0                       # Layer utilization (Ratio)
system.membus.respLayer1.occupancy          911166500                       # Layer occupancy (ticks) (Tick)
system.membus.respLayer1.utilization              0.0                       # Layer utilization (Ratio)
system.membus.snoop_filter.totRequests         341082                       # Total number of requests made to the snoop filter. (Count)
system.membus.snoop_filter.hitSingleRequests       168453                       # Number of requests hitting in the snoop filter with a single holder of the requested data. (Count)
system.membus.snoop_filter.hitMultiRequests            0                       # Number of requests hitting in the snoop filter with multiple (>1) holders of the requested data. (Count)
system.membus.snoop_filter.totSnoops                0                       # Total number of snoops made to the snoop filter. (Count)
system.membus.snoop_filter.hitSingleSnoops            0                       # Number of snoops hitting in the snoop filter with a single holder of the requested data. (Count)
system.membus.snoop_filter.hitMultiSnoops            0                       # Number of snoops hitting in the snoop filter with multiple (>1) holders of the requested data. (Count)
system.tol2bus.transDist::ReadResp             220191                       # Transaction distribution (Count)
system.tol2bus.transDist::WritebackDirty       207682                       # Transaction distribution (Count)
system.tol2bus.transDist::WritebackClean         1821                       # Transaction distribution (Count)
system.tol2bus.transDist::CleanEvict           180754                       # Transaction distribution (Count)
system.tol2bus.transDist::ReadExReq              2114                       # Transaction distribution (Count)
system.tol2bus.transDist::ReadExResp             2114                       # Transaction distribution (Count)
system.tol2bus.transDist::ReadCleanReq           2078                       # Transaction distribution (Count)
system.tol2bus.transDist::ReadSharedReq        218114                       # Transaction distribution (Count)
system.tol2bus.transDist::InvalidateReq           144                       # Transaction distribution (Count)
system.tol2bus.transDist::InvalidateResp          144                       # Transaction distribution (Count)
system.tol2bus.pktCount_system.cpu.icache.mem_side_port::system.l2.cpu_side_port         5976                       # Packet count per connected requestor and responder (Count)
system.tol2bus.pktCount_system.cpu.dcache.mem_side_port::system.l2.cpu_side_port       660092                       # Packet count per connected requestor and responder (Count)
system.tol2bus.pktCount::total                 666068                       # Packet count per connected requestor and responder (Count)
system.tol2bus.pktSize_system.cpu.icache.mem_side_port::system.l2.cpu_side_port       249472                       # Cumulative packet size per connected requestor and responder (Byte)
system.tol2bus.pktSize_system.cpu.dcache.mem_side_port::system.l2.cpu_side_port     20919616                       # Cumulative packet size per connected requestor and responder (Byte)
system.tol2bus.pktSize::total                21169088                       # Cumulative packet size per connected requestor and responder (Byte)
system.tol2bus.snoops                          169088                       # Total snoops (Count)
system.tol2bus.snoopTraffic                   6466624                       # Total snoop traffic (Byte)
system.tol2bus.snoopFanout::samples            391538                       # Request fanout histogram (Count)
system.tol2bus.snoopFanout::mean             0.002186                       # Request fanout histogram (Count)
system.tol2bus.snoopFanout::stdev            0.046706                       # Request fanout histogram (Count)
system.tol2bus.snoopFanout::underflows              0      0.00%      0.00% # Request fanout histogram (Count)
system.tol2bus.snoopFanout::0                  390682     99.78%     99.78% # Request fanout histogram (Count)
system.tol2bus.snoopFanout::1                     856      0.22%    100.00% # Request fanout histogram (Count)
system.tol2bus.snoopFanout::2                       0      0.00%    100.00% # Request fanout histogram (Count)
system.tol2bus.snoopFanout::overflows               0      0.00%    100.00% # Request fanout histogram (Count)
system.tol2bus.snoopFanout::min_value               0                       # Request fanout histogram (Count)
system.tol2bus.snoopFanout::max_value               1                       # Request fanout histogram (Count)
system.tol2bus.snoopFanout::total              391538                       # Request fanout histogram (Count)
system.tol2bus.power_state.pwrStateResidencyTicks::UNDEFINED  20123585000                       # Cumulative time (in ticks) in various power states (Tick)
system.tol2bus.reqLayer0.occupancy          330271500                       # Layer occupancy (ticks) (Tick)
system.tol2bus.reqLayer0.utilization              0.0                       # Layer utilization (Ratio)
system.tol2bus.respLayer0.occupancy           3116498                       # Layer occupancy (ticks) (Tick)
system.tol2bus.respLayer0.utilization             0.0                       # Layer utilization (Ratio)
system.tol2bus.respLayer1.occupancy         330414000                       # Layer occupancy (ticks) (Tick)
system.tol2bus.respLayer1.utilization             0.0                       # Layer utilization (Ratio)
system.tol2bus.snoop_filter.totRequests        443619                       # Total number of requests made to the snoop filter. (Count)
system.tol2bus.snoop_filter.hitSingleRequests       221169                       # Number of requests hitting in the snoop filter with a single holder of the requested data. (Count)
system.tol2bus.snoop_filter.hitMultiRequests            1                       # Number of requests hitting in the snoop filter with multiple (>1) holders of the requested data. (Count)
system.tol2bus.snoop_filter.totSnoops             855                       # Total number of snoops made to the snoop filter. (Count)
system.tol2bus.snoop_filter.hitSingleSnoops          855                       # Number of snoops hitting in the snoop filter with a single holder of the requested data. (Count)
system.tol2bus.snoop_filter.hitMultiSnoops            0                       # Number of snoops hitting in the snoop filter with multiple (>1) holders of the requested data. (Count)
system.voltage_domain.voltage                       1                       # Voltage in Volts (Volt)
system.workload.inst.arm                            0                       # number of arm instructions executed (Count)
system.workload.inst.quiesce                        0                       # number of quiesce instructions executed (Count)

---------- End Simulation Statistics   ----------
