
---------- Begin Simulation Statistics ----------
simSeconds                                   0.005601                       # Number of seconds simulated (Second)
simTicks                                   5600868000                       # Number of ticks simulated (Tick)
finalTick                                  5600868000                       # Number of ticks from beginning of simulation (restored from checkpoints and never reset) (Tick)
simFreq                                  1000000000000                       # The number of ticks per simulated second ((Tick/Second))
hostSeconds                                     55.28                       # Real time elapsed on the host (Second)
hostTickRate                                101323639                       # The number of ticks simulated per host second (ticks/s) ((Tick/Second))
hostMemory                                     681144                       # Number of bytes of host memory used (Byte)
simInsts                                     18162640                       # Number of instructions simulated (Count)
simOps                                       18433806                       # Number of ops (including micro ops) simulated (Count)
hostInstRate                                   328574                       # Simulator instruction rate (inst/s) ((Count/Second))
hostOpRate                                     333480                       # Simulator op (including micro ops) rate (op/s) ((Count/Second))
system.clk_domain.clock                          1000                       # Clock period in ticks (Tick)
system.cpu.numCycles                         11201737                       # Number of cpu cycles simulated (Cycle)
system.cpu.numWorkItemsStarted                      0                       # Number of work items this cpu started (Count)
system.cpu.numWorkItemsCompleted                    0                       # Number of work items this cpu completed (Count)
system.cpu.instsAdded                        19075097                       # Number of instructions added to the IQ (excludes non-spec) (Count)
system.cpu.nonSpecInstsAdded                      409                       # Number of non-speculative instructions added to the IQ (Count)
system.cpu.instsIssued                       18859235                       # Number of instructions issued (Count)
system.cpu.squashedInstsIssued                   2299                       # Number of squashed instructions issued (Count)
system.cpu.squashedInstsExamined               641699                       # Number of squashed instructions iterated over during squash; mainly for profiling (Count)
system.cpu.squashedOperandsExamined            527540                       # Number of squashed operands that are examined and possibly removed from graph (Count)
system.cpu.squashedNonSpecRemoved                 136                       # Number of squashed non-spec instructions that were removed (Count)
system.cpu.numIssuedDist::samples            11060878                       # Number of insts issued each cycle (Count)
system.cpu.numIssuedDist::mean               1.705040                       # Number of insts issued each cycle (Count)
system.cpu.numIssuedDist::stdev              2.488502                       # Number of insts issued each cycle (Count)
system.cpu.numIssuedDist::underflows                0      0.00%      0.00% # Number of insts issued each cycle (Count)
system.cpu.numIssuedDist::0                   6612896     59.79%     59.79% # Number of insts issued each cycle (Count)
system.cpu.numIssuedDist::1                    509877      4.61%     64.40% # Number of insts issued each cycle (Count)
system.cpu.numIssuedDist::2                    616902      5.58%     69.97% # Number of insts issued each cycle (Count)
system.cpu.numIssuedDist::3                    700641      6.33%     76.31% # Number of insts issued each cycle (Count)
system.cpu.numIssuedDist::4                    714443      6.46%     82.77% # Number of insts issued each cycle (Count)
system.cpu.numIssuedDist::5                    534959      4.84%     87.60% # Number of insts issued each cycle (Count)
system.cpu.numIssuedDist::6                    566239      5.12%     92.72% # Number of insts issued each cycle (Count)
system.cpu.numIssuedDist::7                    355738      3.22%     95.94% # Number of insts issued each cycle (Count)
system.cpu.numIssuedDist::8                    449183      4.06%    100.00% # Number of insts issued each cycle (Count)
system.cpu.numIssuedDist::overflows                 0      0.00%    100.00% # Number of insts issued each cycle (Count)
system.cpu.numIssuedDist::min_value                 0                       # Number of insts issued each cycle (Count)
system.cpu.numIssuedDist::max_value                 8                       # Number of insts issued each cycle (Count)
system.cpu.numIssuedDist::total              11060878                       # Number of insts issued each cycle (Count)
system.cpu.statFuBusy::No_OpClass                   0      0.00%      0.00% # attempts to use FU when none available (Count)
system.cpu.statFuBusy::IntAlu                   73133     32.03%     32.03% # attempts to use FU when none available (Count)
system.cpu.statFuBusy::IntMult                    903      0.40%     32.43% # attempts to use FU when none available (Count)
system.cpu.statFuBusy::IntDiv                    1192      0.52%     32.95% # attempts to use FU when none available (Count)
system.cpu.statFuBusy::FloatAdd                     0      0.00%     32.95% # attempts to use FU when none available (Count)
system.cpu.statFuBusy::FloatCmp                     0      0.00%     32.95% # attempts to use FU when none available (Count)
system.cpu.statFuBusy::FloatCvt                     0      0.00%     32.95% # attempts to use FU when none available (Count)
system.cpu.statFuBusy::FloatMult                    0      0.00%     32.95% # attempts to use FU when none available (Count)
system.cpu.statFuBusy::FloatMultAcc                 0      0.00%     32.95% # attempts to use FU when none available (Count)
system.cpu.statFuBusy::FloatDiv                     0      0.00%     32.95% # attempts to use FU when none available (Count)
system.cpu.statFuBusy::FloatMisc                    0      0.00%     32.95% # attempts to use FU when none available (Count)
system.cpu.statFuBusy::FloatSqrt                    0      0.00%     32.95% # attempts to use FU when none available (Count)
system.cpu.statFuBusy::SimdAdd                    472      0.21%     33.16% # attempts to use FU when none available (Count)
system.cpu.statFuBusy::SimdAddAcc                   0      0.00%     33.16% # attempts to use FU when none available (Count)
system.cpu.statFuBusy::SimdAlu                 114266     50.05%     83.20% # attempts to use FU when none available (Count)
system.cpu.statFuBusy::SimdCmp                     17      0.01%     83.21% # attempts to use FU when none available (Count)
system.cpu.statFuBusy::SimdCvt                      0      0.00%     83.21% # attempts to use FU when none available (Count)
system.cpu.statFuBusy::SimdMisc                     0      0.00%     83.21% # attempts to use FU when none available (Count)
system.cpu.statFuBusy::SimdMult                     0      0.00%     83.21% # attempts to use FU when none available (Count)
system.cpu.statFuBusy::SimdMultAcc                  0      0.00%     83.21% # attempts to use FU when none available (Count)
system.cpu.statFuBusy::SimdShift                    0      0.00%     83.21% # attempts to use FU when none available (Count)
system.cpu.statFuBusy::SimdShiftAcc                 0      0.00%     83.21% # attempts to use FU when none available (Count)
system.cpu.statFuBusy::SimdDiv                      0      0.00%     83.21% # attempts to use FU when none available (Count)
system.cpu.statFuBusy::SimdSqrt                     0      0.00%     83.21% # attempts to use FU when none available (Count)
system.cpu.statFuBusy::SimdFloatAdd                 0      0.00%     83.21% # attempts to use FU when none available (Count)
system.cpu.statFuBusy::SimdFloatAlu                 0      0.00%     83.21% # attempts to use FU when none available (Count)
system.cpu.statFuBusy::SimdFloatCmp                 0      0.00%     83.21% # attempts to use FU when none available (Count)
system.cpu.statFuBusy::SimdFloatCvt                 0      0.00%     83.21% # attempts to use FU when none available (Count)
system.cpu.statFuBusy::SimdFloatDiv                 0      0.00%     83.21% # attempts to use FU when none available (Count)
system.cpu.statFuBusy::SimdFloatMisc                0      0.00%     83.21% # attempts to use FU when none available (Count)
system.cpu.statFuBusy::SimdFloatMult                0      0.00%     83.21% # attempts to use FU when none available (Count)
system.cpu.statFuBusy::SimdFloatMultAcc             0      0.00%     83.21% # attempts to use FU when none available (Count)
system.cpu.statFuBusy::SimdFloatSqrt                0      0.00%     83.21% # attempts to use FU when none available (Count)
system.cpu.statFuBusy::SimdReduceAdd                0      0.00%     83.21% # attempts to use FU when none available (Count)
system.cpu.statFuBusy::SimdReduceAlu                0      0.00%     83.21% # attempts to use FU when none available (Count)
system.cpu.statFuBusy::SimdReduceCmp                0      0.00%     83.21% # attempts to use FU when none available (Count)
system.cpu.statFuBusy::SimdFloatReduceAdd            0      0.00%     83.21% # attempts to use FU when none available (Count)
system.cpu.statFuBusy::SimdFloatReduceCmp            0      0.00%     83.21% # attempts to use FU when none available (Count)
system.cpu.statFuBusy::SimdAes                      0      0.00%     83.21% # attempts to use FU when none available (Count)
system.cpu.statFuBusy::SimdAesMix                   0      0.00%     83.21% # attempts to use FU when none available (Count)
system.cpu.statFuBusy::SimdSha1Hash                 0      0.00%     83.21% # attempts to use FU when none available (Count)
system.cpu.statFuBusy::SimdSha1Hash2                0      0.00%     83.21% # attempts to use FU when none available (Count)
system.cpu.statFuBusy::SimdSha256Hash               0      0.00%     83.21% # attempts to use FU when none available (Count)
system.cpu.statFuBusy::SimdSha256Hash2              0      0.00%     83.21% # attempts to use FU when none available (Count)
system.cpu.statFuBusy::SimdShaSigma2                0      0.00%     83.21% # attempts to use FU when none available (Count)
system.cpu.statFuBusy::SimdShaSigma3                0      0.00%     83.21% # attempts to use FU when none available (Count)
system.cpu.statFuBusy::SimdPredAlu                  0      0.00%     83.21% # attempts to use FU when none available (Count)
system.cpu.statFuBusy::MemRead                  23359     10.23%     93.44% # attempts to use FU when none available (Count)
system.cpu.statFuBusy::MemWrite                 14976      6.56%    100.00% # attempts to use FU when none available (Count)
system.cpu.statFuBusy::FloatMemRead                 0      0.00%    100.00% # attempts to use FU when none available (Count)
system.cpu.statFuBusy::FloatMemWrite                0      0.00%    100.00% # attempts to use FU when none available (Count)
system.cpu.statFuBusy::IprAccess                    0      0.00%    100.00% # attempts to use FU when none available (Count)
system.cpu.statFuBusy::InstPrefetch                 0      0.00%    100.00% # attempts to use FU when none available (Count)
system.cpu.statIssuedInstType_0::No_OpClass          886      0.00%      0.00% # Number of instructions issued per FU type, per thread (Count)
system.cpu.statIssuedInstType_0::IntAlu      10836839     57.46%     57.47% # Number of instructions issued per FU type, per thread (Count)
system.cpu.statIssuedInstType_0::IntMult       802122      4.25%     61.72% # Number of instructions issued per FU type, per thread (Count)
system.cpu.statIssuedInstType_0::IntDiv          2710      0.01%     61.73% # Number of instructions issued per FU type, per thread (Count)
system.cpu.statIssuedInstType_0::FloatAdd            0      0.00%     61.73% # Number of instructions issued per FU type, per thread (Count)
system.cpu.statIssuedInstType_0::FloatCmp            0      0.00%     61.73% # Number of instructions issued per FU type, per thread (Count)
system.cpu.statIssuedInstType_0::FloatCvt            0      0.00%     61.73% # Number of instructions issued per FU type, per thread (Count)
system.cpu.statIssuedInstType_0::FloatMult            0      0.00%     61.73% # Number of instructions issued per FU type, per thread (Count)
system.cpu.statIssuedInstType_0::FloatMultAcc            0      0.00%     61.73% # Number of instructions issued per FU type, per thread (Count)
system.cpu.statIssuedInstType_0::FloatDiv            0      0.00%     61.73% # Number of instructions issued per FU type, per thread (Count)
system.cpu.statIssuedInstType_0::FloatMisc            2      0.00%     61.73% # Number of instructions issued per FU type, per thread (Count)
system.cpu.statIssuedInstType_0::FloatSqrt            0      0.00%     61.73% # Number of instructions issued per FU type, per thread (Count)
system.cpu.statIssuedInstType_0::SimdAdd      1575864      8.36%     70.09% # Number of instructions issued per FU type, per thread (Count)
system.cpu.statIssuedInstType_0::SimdAddAcc            0      0.00%     70.09% # Number of instructions issued per FU type, per thread (Count)
system.cpu.statIssuedInstType_0::SimdAlu      2473670     13.12%     83.21% # Number of instructions issued per FU type, per thread (Count)
system.cpu.statIssuedInstType_0::SimdCmp          125      0.00%     83.21% # Number of instructions issued per FU type, per thread (Count)
system.cpu.statIssuedInstType_0::SimdCvt            0      0.00%     83.21% # Number of instructions issued per FU type, per thread (Count)
system.cpu.statIssuedInstType_0::SimdMisc       788024      4.18%     87.39% # Number of instructions issued per FU type, per thread (Count)
system.cpu.statIssuedInstType_0::SimdMult            0      0.00%     87.39% # Number of instructions issued per FU type, per thread (Count)
system.cpu.statIssuedInstType_0::SimdMultAcc            0      0.00%     87.39% # Number of instructions issued per FU type, per thread (Count)
system.cpu.statIssuedInstType_0::SimdShift            0      0.00%     87.39% # Number of instructions issued per FU type, per thread (Count)
system.cpu.statIssuedInstType_0::SimdShiftAcc            0      0.00%     87.39% # Number of instructions issued per FU type, per thread (Count)
system.cpu.statIssuedInstType_0::SimdDiv            0      0.00%     87.39% # Number of instructions issued per FU type, per thread (Count)
system.cpu.statIssuedInstType_0::SimdSqrt            0      0.00%     87.39% # Number of instructions issued per FU type, per thread (Count)
system.cpu.statIssuedInstType_0::SimdFloatAdd            0      0.00%     87.39% # Number of instructions issued per FU type, per thread (Count)
system.cpu.statIssuedInstType_0::SimdFloatAlu            0      0.00%     87.39% # Number of instructions issued per FU type, per thread (Count)
system.cpu.statIssuedInstType_0::SimdFloatCmp            0      0.00%     87.39% # Number of instructions issued per FU type, per thread (Count)
system.cpu.statIssuedInstType_0::SimdFloatCvt            0      0.00%     87.39% # Number of instructions issued per FU type, per thread (Count)
system.cpu.statIssuedInstType_0::SimdFloatDiv            0      0.00%     87.39% # Number of instructions issued per FU type, per thread (Count)
system.cpu.statIssuedInstType_0::SimdFloatMisc            0      0.00%     87.39% # Number of instructions issued per FU type, per thread (Count)
system.cpu.statIssuedInstType_0::SimdFloatMult            0      0.00%     87.39% # Number of instructions issued per FU type, per thread (Count)
system.cpu.statIssuedInstType_0::SimdFloatMultAcc            0      0.00%     87.39% # Number of instructions issued per FU type, per thread (Count)
system.cpu.statIssuedInstType_0::SimdFloatSqrt            0      0.00%     87.39% # Number of instructions issued per FU type, per thread (Count)
system.cpu.statIssuedInstType_0::SimdReduceAdd            0      0.00%     87.39% # Number of instructions issued per FU type, per thread (Count)
system.cpu.statIssuedInstType_0::SimdReduceAlu            0      0.00%     87.39% # Number of instructions issued per FU type, per thread (Count)
system.cpu.statIssuedInstType_0::SimdReduceCmp            0      0.00%     87.39% # Number of instructions issued per FU type, per thread (Count)
system.cpu.statIssuedInstType_0::SimdFloatReduceAdd            0      0.00%     87.39% # Number of instructions issued per FU type, per thread (Count)
system.cpu.statIssuedInstType_0::SimdFloatReduceCmp            0      0.00%     87.39% # Number of instructions issued per FU type, per thread (Count)
system.cpu.statIssuedInstType_0::SimdAes            0      0.00%     87.39% # Number of instructions issued per FU type, per thread (Count)
system.cpu.statIssuedInstType_0::SimdAesMix            0      0.00%     87.39% # Number of instructions issued per FU type, per thread (Count)
system.cpu.statIssuedInstType_0::SimdSha1Hash            0      0.00%     87.39% # Number of instructions issued per FU type, per thread (Count)
system.cpu.statIssuedInstType_0::SimdSha1Hash2            0      0.00%     87.39% # Number of instructions issued per FU type, per thread (Count)
system.cpu.statIssuedInstType_0::SimdSha256Hash            0      0.00%     87.39% # Number of instructions issued per FU type, per thread (Count)
system.cpu.statIssuedInstType_0::SimdSha256Hash2            0      0.00%     87.39% # Number of instructions issued per FU type, per thread (Count)
system.cpu.statIssuedInstType_0::SimdShaSigma2            0      0.00%     87.39% # Number of instructions issued per FU type, per thread (Count)
system.cpu.statIssuedInstType_0::SimdShaSigma3            0      0.00%     87.39% # Number of instructions issued per FU type, per thread (Count)
system.cpu.statIssuedInstType_0::SimdPredAlu            0      0.00%     87.39% # Number of instructions issued per FU type, per thread (Count)
system.cpu.statIssuedInstType_0::MemRead      1371662      7.27%     94.66% # Number of instructions issued per FU type, per thread (Count)
system.cpu.statIssuedInstType_0::MemWrite      1007331      5.34%    100.00% # Number of instructions issued per FU type, per thread (Count)
system.cpu.statIssuedInstType_0::FloatMemRead            0      0.00%    100.00% # Number of instructions issued per FU type, per thread (Count)
system.cpu.statIssuedInstType_0::FloatMemWrite            0      0.00%    100.00% # Number of instructions issued per FU type, per thread (Count)
system.cpu.statIssuedInstType_0::IprAccess            0      0.00%    100.00% # Number of instructions issued per FU type, per thread (Count)
system.cpu.statIssuedInstType_0::InstPrefetch            0      0.00%    100.00% # Number of instructions issued per FU type, per thread (Count)
system.cpu.statIssuedInstType_0::total       18859235                       # Number of instructions issued per FU type, per thread (Count)
system.cpu.issueRate                         1.683599                       # Inst issue rate ((Count/Cycle))
system.cpu.fuBusy                              228318                       # FU busy when requested (Count)
system.cpu.fuBusyRate                        0.012106                       # FU busy rate (busy events/executed inst) ((Count/Count))
system.cpu.intInstQueueReads                 39111287                       # Number of integer instruction queue reads (Count)
system.cpu.intInstQueueWrites                14784340                       # Number of integer instruction queue writes (Count)
system.cpu.intInstQueueWakeupAccesses        13866577                       # Number of integer instruction queue wakeup accesses (Count)
system.cpu.fpInstQueueReads                         0                       # Number of floating instruction queue reads (Count)
system.cpu.fpInstQueueWrites                        0                       # Number of floating instruction queue writes (Count)
system.cpu.fpInstQueueWakeupAccesses                0                       # Number of floating instruction queue wakeup accesses (Count)
system.cpu.vecInstQueueReads                  9898678                       # Number of vector instruction queue reads (Count)
system.cpu.vecInstQueueWrites                 4933191                       # Number of vector instruction queue writes (Count)
system.cpu.vecInstQueueWakeupAccesses         4890698                       # Number of vector instruction queue wakeup accesses (Count)
system.cpu.intAluAccesses                    14079740                       # Number of integer alu accesses (Count)
system.cpu.fpAluAccesses                            0                       # Number of floating point alu accesses (Count)
system.cpu.vecAluAccesses                     5006927                       # Number of vector alu accesses (Count)
system.cpu.numInsts                          18825504                       # Number of executed instructions (Count)
system.cpu.numLoadInsts                       1359585                       # Number of load instructions executed (Count)
system.cpu.numSquashedInsts                     33731                       # Number of squashed instructions skipped in execute (Count)
system.cpu.numSwp                                   0                       # Number of swp insts executed (Count)
system.cpu.numNop                                 443                       # Number of nop insts executed (Count)
system.cpu.numRefs                            2365092                       # Number of memory reference insts executed (Count)
system.cpu.numBranches                        2442140                       # Number of branches executed (Count)
system.cpu.numStoreInsts                      1005507                       # Number of stores executed (Count)
system.cpu.numRate                           1.680588                       # Inst execution rate ((Count/Cycle))
system.cpu.timesIdled                            1459                       # Number of times that the entire CPU went into an idle state and unscheduled itself (Count)
system.cpu.idleCycles                          140859                       # Total number of cycles that the CPU has spent unscheduled due to idling (Cycle)
system.cpu.committedInsts                    18162640                       # Number of Instructions Simulated (Count)
system.cpu.committedOps                      18433806                       # Number of Ops (including micro ops) Simulated (Count)
system.cpu.cpi                               0.616746                       # CPI: Cycles Per Instruction ((Cycle/Count))
system.cpu.totalCpi                          0.616746                       # CPI: Total CPI of All Threads ((Cycle/Count))
system.cpu.ipc                               1.621413                       # IPC: Instructions Per Cycle ((Count/Cycle))
system.cpu.totalIpc                          1.621413                       # IPC: Total IPC of All Threads ((Count/Cycle))
system.cpu.intRegfileReads                   20950510                       # Number of integer regfile reads (Count)
system.cpu.intRegfileWrites                   8706178                       # Number of integer regfile writes (Count)
system.cpu.vecRegfileReads                   11413866                       # number of vector regfile reads (Count)
system.cpu.ccRegfileReads                     7772229                       # number of cc regfile reads (Count)
system.cpu.ccRegfileWrites                    7773066                       # number of cc regfile writes (Count)
system.cpu.miscRegfileReads                  10069342                       # number of misc regfile reads (Count)
system.cpu.miscRegfileWrites                      213                       # number of misc regfile writes (Count)
system.cpu.MemDepUnit__0.insertedLoads        1358839                       # Number of loads inserted to the mem dependence unit. (Count)
system.cpu.MemDepUnit__0.insertedStores       1016208                       # Number of stores inserted to the mem dependence unit. (Count)
system.cpu.MemDepUnit__0.conflictingLoads       782860                       # Number of conflicting loads. (Count)
system.cpu.MemDepUnit__0.conflictingStores       607533                       # Number of conflicting stores. (Count)
system.cpu.MemDepUnit__1.insertedLoads              0                       # Number of loads inserted to the mem dependence unit. (Count)
system.cpu.MemDepUnit__1.insertedStores             0                       # Number of stores inserted to the mem dependence unit. (Count)
system.cpu.MemDepUnit__1.conflictingLoads            0                       # Number of conflicting loads. (Count)
system.cpu.MemDepUnit__1.conflictingStores            0                       # Number of conflicting stores. (Count)
system.cpu.MemDepUnit__2.insertedLoads              0                       # Number of loads inserted to the mem dependence unit. (Count)
system.cpu.MemDepUnit__2.insertedStores             0                       # Number of stores inserted to the mem dependence unit. (Count)
system.cpu.MemDepUnit__2.conflictingLoads            0                       # Number of conflicting loads. (Count)
system.cpu.MemDepUnit__2.conflictingStores            0                       # Number of conflicting stores. (Count)
system.cpu.MemDepUnit__3.insertedLoads              0                       # Number of loads inserted to the mem dependence unit. (Count)
system.cpu.MemDepUnit__3.insertedStores             0                       # Number of stores inserted to the mem dependence unit. (Count)
system.cpu.MemDepUnit__3.conflictingLoads            0                       # Number of conflicting loads. (Count)
system.cpu.MemDepUnit__3.conflictingStores            0                       # Number of conflicting stores. (Count)
system.cpu.branchPred.lookups                 2580692                       # Number of BP lookups (Count)
system.cpu.branchPred.condPredicted           2506171                       # Number of conditional branches predicted (Count)
system.cpu.branchPred.condIncorrect             18042                       # Number of conditional branches incorrect (Count)
system.cpu.branchPred.BTBLookups               332267                       # Number of BTB lookups (Count)
system.cpu.branchPred.BTBUpdates                 9572                       # Number of BTB updates (Count)
system.cpu.branchPred.BTBHits                  329390                       # Number of BTB hits (Count)
system.cpu.branchPred.BTBHitRatio            0.991341                       # BTB Hit Ratio (Ratio)
system.cpu.branchPred.RASUsed                   17561                       # Number of times the RAS was used to get a target. (Count)
system.cpu.branchPred.RASIncorrect                 40                       # Number of incorrect RAS predictions. (Count)
system.cpu.branchPred.indirectLookups            6697                       # Number of indirect predictor lookups. (Count)
system.cpu.branchPred.indirectHits               1337                       # Number of indirect target hits. (Count)
system.cpu.branchPred.indirectMisses             5360                       # Number of indirect misses. (Count)
system.cpu.branchPred.indirectMispredicted          667                       # Number of mispredicted indirect branches. (Count)
system.cpu.commit.commitSquashedInsts          636690                       # The number of squashed insts skipped by commit (Count)
system.cpu.commit.commitNonSpecStalls             273                       # The number of times commit has been forced to stall to communicate backwards (Count)
system.cpu.commit.branchMispredicts             17950                       # The number of times a branch was mispredicted (Count)
system.cpu.commit.numCommittedDist::samples     10963010                       # Number of insts commited each cycle (Count)
system.cpu.commit.numCommittedDist::mean     1.681466                       # Number of insts commited each cycle (Count)
system.cpu.commit.numCommittedDist::stdev     2.981883                       # Number of insts commited each cycle (Count)
system.cpu.commit.numCommittedDist::underflows            0      0.00%      0.00% # Number of insts commited each cycle (Count)
system.cpu.commit.numCommittedDist::0         7339770     66.95%     66.95% # Number of insts commited each cycle (Count)
system.cpu.commit.numCommittedDist::1         1160761     10.59%     77.54% # Number of insts commited each cycle (Count)
system.cpu.commit.numCommittedDist::2           89440      0.82%     78.35% # Number of insts commited each cycle (Count)
system.cpu.commit.numCommittedDist::3           53543      0.49%     78.84% # Number of insts commited each cycle (Count)
system.cpu.commit.numCommittedDist::4           94086      0.86%     79.70% # Number of insts commited each cycle (Count)
system.cpu.commit.numCommittedDist::5           34786      0.32%     80.02% # Number of insts commited each cycle (Count)
system.cpu.commit.numCommittedDist::6          511860      4.67%     84.69% # Number of insts commited each cycle (Count)
system.cpu.commit.numCommittedDist::7          117883      1.08%     85.76% # Number of insts commited each cycle (Count)
system.cpu.commit.numCommittedDist::8         1560881     14.24%    100.00% # Number of insts commited each cycle (Count)
system.cpu.commit.numCommittedDist::overflows            0      0.00%    100.00% # Number of insts commited each cycle (Count)
system.cpu.commit.numCommittedDist::min_value            0                       # Number of insts commited each cycle (Count)
system.cpu.commit.numCommittedDist::max_value            8                       # Number of insts commited each cycle (Count)
system.cpu.commit.numCommittedDist::total     10963010                       # Number of insts commited each cycle (Count)
system.cpu.commit.instsCommitted             18162767                       # Number of instructions committed (Count)
system.cpu.commit.opsCommitted               18433933                       # Number of ops (including micro ops) committed (Count)
system.cpu.commit.memRefs                     2222546                       # Number of memory references committed (Count)
system.cpu.commit.loads                       1246798                       # Number of loads committed (Count)
system.cpu.commit.amos                            106                       # Number of atomic instructions committed (Count)
system.cpu.commit.membars                         114                       # Number of memory barriers committed (Count)
system.cpu.commit.branches                    2389706                       # Number of branches committed (Count)
system.cpu.commit.vectorInstructions          4883195                       # Number of committed Vector instructions. (Count)
system.cpu.commit.floating                          0                       # Number of committed floating point instructions. (Count)
system.cpu.commit.integer                    12417415                       # Number of committed integer instructions. (Count)
system.cpu.commit.functionCalls                 11001                       # Number of function calls committed. (Count)
system.cpu.commit.committedInstType_0::No_OpClass          130      0.00%      0.00% # Class of committed instruction (Count)
system.cpu.commit.committedInstType_0::IntAlu     10580991     57.40%     57.40% # Class of committed instruction (Count)
system.cpu.commit.committedInstType_0::IntMult       797405      4.33%     61.73% # Class of committed instruction (Count)
system.cpu.commit.committedInstType_0::IntDiv         2565      0.01%     61.74% # Class of committed instruction (Count)
system.cpu.commit.committedInstType_0::FloatAdd            0      0.00%     61.74% # Class of committed instruction (Count)
system.cpu.commit.committedInstType_0::FloatCmp            0      0.00%     61.74% # Class of committed instruction (Count)
system.cpu.commit.committedInstType_0::FloatCvt            0      0.00%     61.74% # Class of committed instruction (Count)
system.cpu.commit.committedInstType_0::FloatMult            0      0.00%     61.74% # Class of committed instruction (Count)
system.cpu.commit.committedInstType_0::FloatMultAcc            0      0.00%     61.74% # Class of committed instruction (Count)
system.cpu.commit.committedInstType_0::FloatDiv            0      0.00%     61.74% # Class of committed instruction (Count)
system.cpu.commit.committedInstType_0::FloatMisc            2      0.00%     61.74% # Class of committed instruction (Count)
system.cpu.commit.committedInstType_0::FloatSqrt            0      0.00%     61.74% # Class of committed instruction (Count)
system.cpu.commit.committedInstType_0::SimdAdd      1573599      8.54%     70.28% # Class of committed instruction (Count)
system.cpu.commit.committedInstType_0::SimdAddAcc            0      0.00%     70.28% # Class of committed instruction (Count)
system.cpu.commit.committedInstType_0::SimdAlu      2469729     13.40%     83.67% # Class of committed instruction (Count)
system.cpu.commit.committedInstType_0::SimdCmp           97      0.00%     83.67% # Class of committed instruction (Count)
system.cpu.commit.committedInstType_0::SimdCvt            0      0.00%     83.67% # Class of committed instruction (Count)
system.cpu.commit.committedInstType_0::SimdMisc       786869      4.27%     87.94% # Class of committed instruction (Count)
system.cpu.commit.committedInstType_0::SimdMult            0      0.00%     87.94% # Class of committed instruction (Count)
system.cpu.commit.committedInstType_0::SimdMultAcc            0      0.00%     87.94% # Class of committed instruction (Count)
system.cpu.commit.committedInstType_0::SimdShift            0      0.00%     87.94% # Class of committed instruction (Count)
system.cpu.commit.committedInstType_0::SimdShiftAcc            0      0.00%     87.94% # Class of committed instruction (Count)
system.cpu.commit.committedInstType_0::SimdDiv            0      0.00%     87.94% # Class of committed instruction (Count)
system.cpu.commit.committedInstType_0::SimdSqrt            0      0.00%     87.94% # Class of committed instruction (Count)
system.cpu.commit.committedInstType_0::SimdFloatAdd            0      0.00%     87.94% # Class of committed instruction (Count)
system.cpu.commit.committedInstType_0::SimdFloatAlu            0      0.00%     87.94% # Class of committed instruction (Count)
system.cpu.commit.committedInstType_0::SimdFloatCmp            0      0.00%     87.94% # Class of committed instruction (Count)
system.cpu.commit.committedInstType_0::SimdFloatCvt            0      0.00%     87.94% # Class of committed instruction (Count)
system.cpu.commit.committedInstType_0::SimdFloatDiv            0      0.00%     87.94% # Class of committed instruction (Count)
system.cpu.commit.committedInstType_0::SimdFloatMisc            0      0.00%     87.94% # Class of committed instruction (Count)
system.cpu.commit.committedInstType_0::SimdFloatMult            0      0.00%     87.94% # Class of committed instruction (Count)
system.cpu.commit.committedInstType_0::SimdFloatMultAcc            0      0.00%     87.94% # Class of committed instruction (Count)
system.cpu.commit.committedInstType_0::SimdFloatSqrt            0      0.00%     87.94% # Class of committed instruction (Count)
system.cpu.commit.committedInstType_0::SimdReduceAdd            0      0.00%     87.94% # Class of committed instruction (Count)
system.cpu.commit.committedInstType_0::SimdReduceAlu            0      0.00%     87.94% # Class of committed instruction (Count)
system.cpu.commit.committedInstType_0::SimdReduceCmp            0      0.00%     87.94% # Class of committed instruction (Count)
system.cpu.commit.committedInstType_0::SimdFloatReduceAdd            0      0.00%     87.94% # Class of committed instruction (Count)
system.cpu.commit.committedInstType_0::SimdFloatReduceCmp            0      0.00%     87.94% # Class of committed instruction (Count)
system.cpu.commit.committedInstType_0::SimdAes            0      0.00%     87.94% # Class of committed instruction (Count)
system.cpu.commit.committedInstType_0::SimdAesMix            0      0.00%     87.94% # Class of committed instruction (Count)
system.cpu.commit.committedInstType_0::SimdSha1Hash            0      0.00%     87.94% # Class of committed instruction (Count)
system.cpu.commit.committedInstType_0::SimdSha1Hash2            0      0.00%     87.94% # Class of committed instruction (Count)
system.cpu.commit.committedInstType_0::SimdSha256Hash            0      0.00%     87.94% # Class of committed instruction (Count)
system.cpu.commit.committedInstType_0::SimdSha256Hash2            0      0.00%     87.94% # Class of committed instruction (Count)
system.cpu.commit.committedInstType_0::SimdShaSigma2            0      0.00%     87.94% # Class of committed instruction (Count)
system.cpu.commit.committedInstType_0::SimdShaSigma3            0      0.00%     87.94% # Class of committed instruction (Count)
system.cpu.commit.committedInstType_0::SimdPredAlu            0      0.00%     87.94% # Class of committed instruction (Count)
system.cpu.commit.committedInstType_0::MemRead      1246798      6.76%     94.71% # Class of committed instruction (Count)
system.cpu.commit.committedInstType_0::MemWrite       975748      5.29%    100.00% # Class of committed instruction (Count)
system.cpu.commit.committedInstType_0::FloatMemRead            0      0.00%    100.00% # Class of committed instruction (Count)
system.cpu.commit.committedInstType_0::FloatMemWrite            0      0.00%    100.00% # Class of committed instruction (Count)
system.cpu.commit.committedInstType_0::IprAccess            0      0.00%    100.00% # Class of committed instruction (Count)
system.cpu.commit.committedInstType_0::InstPrefetch            0      0.00%    100.00% # Class of committed instruction (Count)
system.cpu.commit.committedInstType_0::total     18433933                       # Class of committed instruction (Count)
system.cpu.commit.commitEligibleSamples       1560881                       # number cycles where commit BW limit reached (Cycle)
system.cpu.dcache.demandHits::cpu.data        1843534                       # number of demand (read+write) hits (Count)
system.cpu.dcache.demandHits::total           1843534                       # number of demand (read+write) hits (Count)
system.cpu.dcache.overallHits::cpu.data       1843534                       # number of overall hits (Count)
system.cpu.dcache.overallHits::total          1843534                       # number of overall hits (Count)
system.cpu.dcache.demandMisses::cpu.data       116398                       # number of demand (read+write) misses (Count)
system.cpu.dcache.demandMisses::total          116398                       # number of demand (read+write) misses (Count)
system.cpu.dcache.overallMisses::cpu.data       116398                       # number of overall misses (Count)
system.cpu.dcache.overallMisses::total         116398                       # number of overall misses (Count)
system.cpu.dcache.demandMissLatency::cpu.data   8394446991                       # number of demand (read+write) miss ticks (Tick)
system.cpu.dcache.demandMissLatency::total   8394446991                       # number of demand (read+write) miss ticks (Tick)
system.cpu.dcache.overallMissLatency::cpu.data   8394446991                       # number of overall miss ticks (Tick)
system.cpu.dcache.overallMissLatency::total   8394446991                       # number of overall miss ticks (Tick)
system.cpu.dcache.demandAccesses::cpu.data      1959932                       # number of demand (read+write) accesses (Count)
system.cpu.dcache.demandAccesses::total       1959932                       # number of demand (read+write) accesses (Count)
system.cpu.dcache.overallAccesses::cpu.data      1959932                       # number of overall (read+write) accesses (Count)
system.cpu.dcache.overallAccesses::total      1959932                       # number of overall (read+write) accesses (Count)
system.cpu.dcache.demandMissRate::cpu.data     0.059389                       # miss rate for demand accesses (Ratio)
system.cpu.dcache.demandMissRate::total      0.059389                       # miss rate for demand accesses (Ratio)
system.cpu.dcache.overallMissRate::cpu.data     0.059389                       # miss rate for overall accesses (Ratio)
system.cpu.dcache.overallMissRate::total     0.059389                       # miss rate for overall accesses (Ratio)
system.cpu.dcache.demandAvgMissLatency::cpu.data 72118.481340                       # average overall miss latency in ticks ((Tick/Count))
system.cpu.dcache.demandAvgMissLatency::total 72118.481340                       # average overall miss latency in ticks ((Tick/Count))
system.cpu.dcache.overallAvgMissLatency::cpu.data 72118.481340                       # average overall miss latency ((Tick/Count))
system.cpu.dcache.overallAvgMissLatency::total 72118.481340                       # average overall miss latency ((Tick/Count))
system.cpu.dcache.blockedCycles::no_mshrs        96518                       # number of cycles access was blocked (Cycle)
system.cpu.dcache.blockedCycles::no_targets          462                       # number of cycles access was blocked (Cycle)
system.cpu.dcache.blockedCauses::no_mshrs         2106                       # number of times access was blocked (Count)
system.cpu.dcache.blockedCauses::no_targets           10                       # number of times access was blocked (Count)
system.cpu.dcache.avgBlocked::no_mshrs      45.830009                       # average number of cycles each access was blocked ((Cycle/Count))
system.cpu.dcache.avgBlocked::no_targets    46.200000                       # average number of cycles each access was blocked ((Cycle/Count))
system.cpu.dcache.writebacks::writebacks        27247                       # number of writebacks (Count)
system.cpu.dcache.writebacks::total             27247                       # number of writebacks (Count)
system.cpu.dcache.demandMshrHits::cpu.data        50619                       # number of demand (read+write) MSHR hits (Count)
system.cpu.dcache.demandMshrHits::total         50619                       # number of demand (read+write) MSHR hits (Count)
system.cpu.dcache.overallMshrHits::cpu.data        50619                       # number of overall MSHR hits (Count)
system.cpu.dcache.overallMshrHits::total        50619                       # number of overall MSHR hits (Count)
system.cpu.dcache.demandMshrMisses::cpu.data        65779                       # number of demand (read+write) MSHR misses (Count)
system.cpu.dcache.demandMshrMisses::total        65779                       # number of demand (read+write) MSHR misses (Count)
system.cpu.dcache.overallMshrMisses::cpu.data        65779                       # number of overall MSHR misses (Count)
system.cpu.dcache.overallMshrMisses::total        65779                       # number of overall MSHR misses (Count)
system.cpu.dcache.demandMshrMissLatency::cpu.data   4944064703                       # number of demand (read+write) MSHR miss ticks (Tick)
system.cpu.dcache.demandMshrMissLatency::total   4944064703                       # number of demand (read+write) MSHR miss ticks (Tick)
system.cpu.dcache.overallMshrMissLatency::cpu.data   4944064703                       # number of overall MSHR miss ticks (Tick)
system.cpu.dcache.overallMshrMissLatency::total   4944064703                       # number of overall MSHR miss ticks (Tick)
system.cpu.dcache.demandMshrMissRate::cpu.data     0.033562                       # mshr miss ratio for demand accesses (Ratio)
system.cpu.dcache.demandMshrMissRate::total     0.033562                       # mshr miss ratio for demand accesses (Ratio)
system.cpu.dcache.overallMshrMissRate::cpu.data     0.033562                       # mshr miss ratio for overall accesses (Ratio)
system.cpu.dcache.overallMshrMissRate::total     0.033562                       # mshr miss ratio for overall accesses (Ratio)
system.cpu.dcache.demandAvgMshrMissLatency::cpu.data 75161.749236                       # average overall mshr miss latency ((Tick/Count))
system.cpu.dcache.demandAvgMshrMissLatency::total 75161.749236                       # average overall mshr miss latency ((Tick/Count))
system.cpu.dcache.overallAvgMshrMissLatency::cpu.data 75161.749236                       # average overall mshr miss latency ((Tick/Count))
system.cpu.dcache.overallAvgMshrMissLatency::total 75161.749236                       # average overall mshr miss latency ((Tick/Count))
system.cpu.dcache.replacements                  64761                       # number of replacements (Count)
system.cpu.dcache.ReadReq.hits::cpu.data       873571                       # number of ReadReq hits (Count)
system.cpu.dcache.ReadReq.hits::total          873571                       # number of ReadReq hits (Count)
system.cpu.dcache.ReadReq.misses::cpu.data       110705                       # number of ReadReq misses (Count)
system.cpu.dcache.ReadReq.misses::total        110705                       # number of ReadReq misses (Count)
system.cpu.dcache.ReadReq.missLatency::cpu.data   8053933500                       # number of ReadReq miss ticks (Tick)
system.cpu.dcache.ReadReq.missLatency::total   8053933500                       # number of ReadReq miss ticks (Tick)
system.cpu.dcache.ReadReq.accesses::cpu.data       984276                       # number of ReadReq accesses(hits+misses) (Count)
system.cpu.dcache.ReadReq.accesses::total       984276                       # number of ReadReq accesses(hits+misses) (Count)
system.cpu.dcache.ReadReq.missRate::cpu.data     0.112474                       # miss rate for ReadReq accesses (Ratio)
system.cpu.dcache.ReadReq.missRate::total     0.112474                       # miss rate for ReadReq accesses (Ratio)
system.cpu.dcache.ReadReq.avgMissLatency::cpu.data 72751.307529                       # average ReadReq miss latency ((Tick/Count))
system.cpu.dcache.ReadReq.avgMissLatency::total 72751.307529                       # average ReadReq miss latency ((Tick/Count))
system.cpu.dcache.ReadReq.mshrHits::cpu.data        47182                       # number of ReadReq MSHR hits (Count)
system.cpu.dcache.ReadReq.mshrHits::total        47182                       # number of ReadReq MSHR hits (Count)
system.cpu.dcache.ReadReq.mshrMisses::cpu.data        63523                       # number of ReadReq MSHR misses (Count)
system.cpu.dcache.ReadReq.mshrMisses::total        63523                       # number of ReadReq MSHR misses (Count)
system.cpu.dcache.ReadReq.mshrMissLatency::cpu.data   4809071000                       # number of ReadReq MSHR miss ticks (Tick)
system.cpu.dcache.ReadReq.mshrMissLatency::total   4809071000                       # number of ReadReq MSHR miss ticks (Tick)
system.cpu.dcache.ReadReq.mshrMissRate::cpu.data     0.064538                       # mshr miss rate for ReadReq accesses (Ratio)
system.cpu.dcache.ReadReq.mshrMissRate::total     0.064538                       # mshr miss rate for ReadReq accesses (Ratio)
system.cpu.dcache.ReadReq.avgMshrMissLatency::cpu.data 75705.980511                       # average ReadReq mshr miss latency ((Tick/Count))
system.cpu.dcache.ReadReq.avgMshrMissLatency::total 75705.980511                       # average ReadReq mshr miss latency ((Tick/Count))
system.cpu.dcache.SwapReq.hits::cpu.data          100                       # number of SwapReq hits (Count)
system.cpu.dcache.SwapReq.hits::total             100                       # number of SwapReq hits (Count)
system.cpu.dcache.SwapReq.misses::cpu.data            6                       # number of SwapReq misses (Count)
system.cpu.dcache.SwapReq.misses::total             6                       # number of SwapReq misses (Count)
system.cpu.dcache.SwapReq.missLatency::cpu.data       385500                       # number of SwapReq miss ticks (Tick)
system.cpu.dcache.SwapReq.missLatency::total       385500                       # number of SwapReq miss ticks (Tick)
system.cpu.dcache.SwapReq.accesses::cpu.data          106                       # number of SwapReq accesses(hits+misses) (Count)
system.cpu.dcache.SwapReq.accesses::total          106                       # number of SwapReq accesses(hits+misses) (Count)
system.cpu.dcache.SwapReq.missRate::cpu.data     0.056604                       # miss rate for SwapReq accesses (Ratio)
system.cpu.dcache.SwapReq.missRate::total     0.056604                       # miss rate for SwapReq accesses (Ratio)
system.cpu.dcache.SwapReq.avgMissLatency::cpu.data        64250                       # average SwapReq miss latency ((Tick/Count))
system.cpu.dcache.SwapReq.avgMissLatency::total        64250                       # average SwapReq miss latency ((Tick/Count))
system.cpu.dcache.SwapReq.mshrMisses::cpu.data            6                       # number of SwapReq MSHR misses (Count)
system.cpu.dcache.SwapReq.mshrMisses::total            6                       # number of SwapReq MSHR misses (Count)
system.cpu.dcache.SwapReq.mshrMissLatency::cpu.data       379500                       # number of SwapReq MSHR miss ticks (Tick)
system.cpu.dcache.SwapReq.mshrMissLatency::total       379500                       # number of SwapReq MSHR miss ticks (Tick)
system.cpu.dcache.SwapReq.mshrMissRate::cpu.data     0.056604                       # mshr miss rate for SwapReq accesses (Ratio)
system.cpu.dcache.SwapReq.mshrMissRate::total     0.056604                       # mshr miss rate for SwapReq accesses (Ratio)
system.cpu.dcache.SwapReq.avgMshrMissLatency::cpu.data        63250                       # average SwapReq mshr miss latency ((Tick/Count))
system.cpu.dcache.SwapReq.avgMshrMissLatency::total        63250                       # average SwapReq mshr miss latency ((Tick/Count))
system.cpu.dcache.WriteLineReq.misses::cpu.data          131                       # number of WriteLineReq misses (Count)
system.cpu.dcache.WriteLineReq.misses::total          131                       # number of WriteLineReq misses (Count)
system.cpu.dcache.WriteLineReq.missLatency::cpu.data      4174908                       # number of WriteLineReq miss ticks (Tick)
system.cpu.dcache.WriteLineReq.missLatency::total      4174908                       # number of WriteLineReq miss ticks (Tick)
system.cpu.dcache.WriteLineReq.accesses::cpu.data          131                       # number of WriteLineReq accesses(hits+misses) (Count)
system.cpu.dcache.WriteLineReq.accesses::total          131                       # number of WriteLineReq accesses(hits+misses) (Count)
system.cpu.dcache.WriteLineReq.missRate::cpu.data            1                       # miss rate for WriteLineReq accesses (Ratio)
system.cpu.dcache.WriteLineReq.missRate::total            1                       # miss rate for WriteLineReq accesses (Ratio)
system.cpu.dcache.WriteLineReq.avgMissLatency::cpu.data 31869.526718                       # average WriteLineReq miss latency ((Tick/Count))
system.cpu.dcache.WriteLineReq.avgMissLatency::total 31869.526718                       # average WriteLineReq miss latency ((Tick/Count))
system.cpu.dcache.WriteLineReq.mshrMisses::cpu.data          131                       # number of WriteLineReq MSHR misses (Count)
system.cpu.dcache.WriteLineReq.mshrMisses::total          131                       # number of WriteLineReq MSHR misses (Count)
system.cpu.dcache.WriteLineReq.mshrMissLatency::cpu.data      4043908                       # number of WriteLineReq MSHR miss ticks (Tick)
system.cpu.dcache.WriteLineReq.mshrMissLatency::total      4043908                       # number of WriteLineReq MSHR miss ticks (Tick)
system.cpu.dcache.WriteLineReq.mshrMissRate::cpu.data            1                       # mshr miss rate for WriteLineReq accesses (Ratio)
system.cpu.dcache.WriteLineReq.mshrMissRate::total            1                       # mshr miss rate for WriteLineReq accesses (Ratio)
system.cpu.dcache.WriteLineReq.avgMshrMissLatency::cpu.data 30869.526718                       # average WriteLineReq mshr miss latency ((Tick/Count))
system.cpu.dcache.WriteLineReq.avgMshrMissLatency::total 30869.526718                       # average WriteLineReq mshr miss latency ((Tick/Count))
system.cpu.dcache.WriteReq.hits::cpu.data       969963                       # number of WriteReq hits (Count)
system.cpu.dcache.WriteReq.hits::total         969963                       # number of WriteReq hits (Count)
system.cpu.dcache.WriteReq.misses::cpu.data         5562                       # number of WriteReq misses (Count)
system.cpu.dcache.WriteReq.misses::total         5562                       # number of WriteReq misses (Count)
system.cpu.dcache.WriteReq.missLatency::cpu.data    336338583                       # number of WriteReq miss ticks (Tick)
system.cpu.dcache.WriteReq.missLatency::total    336338583                       # number of WriteReq miss ticks (Tick)
system.cpu.dcache.WriteReq.accesses::cpu.data       975525                       # number of WriteReq accesses(hits+misses) (Count)
system.cpu.dcache.WriteReq.accesses::total       975525                       # number of WriteReq accesses(hits+misses) (Count)
system.cpu.dcache.WriteReq.missRate::cpu.data     0.005702                       # miss rate for WriteReq accesses (Ratio)
system.cpu.dcache.WriteReq.missRate::total     0.005702                       # miss rate for WriteReq accesses (Ratio)
system.cpu.dcache.WriteReq.avgMissLatency::cpu.data 60470.798813                       # average WriteReq miss latency ((Tick/Count))
system.cpu.dcache.WriteReq.avgMissLatency::total 60470.798813                       # average WriteReq miss latency ((Tick/Count))
system.cpu.dcache.WriteReq.mshrHits::cpu.data         3437                       # number of WriteReq MSHR hits (Count)
system.cpu.dcache.WriteReq.mshrHits::total         3437                       # number of WriteReq MSHR hits (Count)
system.cpu.dcache.WriteReq.mshrMisses::cpu.data         2125                       # number of WriteReq MSHR misses (Count)
system.cpu.dcache.WriteReq.mshrMisses::total         2125                       # number of WriteReq MSHR misses (Count)
system.cpu.dcache.WriteReq.mshrMissLatency::cpu.data    130949795                       # number of WriteReq MSHR miss ticks (Tick)
system.cpu.dcache.WriteReq.mshrMissLatency::total    130949795                       # number of WriteReq MSHR miss ticks (Tick)
system.cpu.dcache.WriteReq.mshrMissRate::cpu.data     0.002178                       # mshr miss rate for WriteReq accesses (Ratio)
system.cpu.dcache.WriteReq.mshrMissRate::total     0.002178                       # mshr miss rate for WriteReq accesses (Ratio)
system.cpu.dcache.WriteReq.avgMshrMissLatency::cpu.data 61623.432941                       # average WriteReq mshr miss latency ((Tick/Count))
system.cpu.dcache.WriteReq.avgMshrMissLatency::total 61623.432941                       # average WriteReq mshr miss latency ((Tick/Count))
system.cpu.dcache.power_state.pwrStateResidencyTicks::UNDEFINED   5600868000                       # Cumulative time (in ticks) in various power states (Tick)
system.cpu.dcache.tags.tagsInUse          1017.308135                       # Average ticks per tags in use ((Tick/Count))
system.cpu.dcache.tags.totalRefs              1909419                       # Total number of references to valid blocks. (Count)
system.cpu.dcache.tags.sampledRefs              65785                       # Sample count of references to valid blocks. (Count)
system.cpu.dcache.tags.avgRefs              29.025143                       # Average number of references to valid blocks. ((Count/Count))
system.cpu.dcache.tags.warmupTick              253500                       # The tick when the warmup percentage was hit. (Tick)
system.cpu.dcache.tags.occupancies::cpu.data  1017.308135                       # Average occupied blocks per tick, per requestor ((Count/Tick))
system.cpu.dcache.tags.avgOccs::cpu.data     0.993465                       # Average percentage of cache occupancy ((Ratio/Tick))
system.cpu.dcache.tags.avgOccs::total        0.993465                       # Average percentage of cache occupancy ((Ratio/Tick))
system.cpu.dcache.tags.occupanciesTaskId::1024         1024                       # Occupied blocks per task id (Count)
system.cpu.dcache.tags.ageTaskId_1024::0           92                       # Occupied blocks per task id, per block age (Count)
system.cpu.dcache.tags.ageTaskId_1024::1          859                       # Occupied blocks per task id, per block age (Count)
system.cpu.dcache.tags.ageTaskId_1024::2           72                       # Occupied blocks per task id, per block age (Count)
system.cpu.dcache.tags.ageTaskId_1024::3            1                       # Occupied blocks per task id, per block age (Count)
system.cpu.dcache.tags.ratioOccsTaskId::1024            1                       # Ratio of occupied blocks and all blocks, per task id (Ratio)
system.cpu.dcache.tags.tagAccesses            7905937                       # Number of tag accesses (Count)
system.cpu.dcache.tags.dataAccesses           7905937                       # Number of data accesses (Count)
system.cpu.dcache.tags.power_state.pwrStateResidencyTicks::UNDEFINED   5600868000                       # Cumulative time (in ticks) in various power states (Tick)
system.cpu.decode.idleCycles                   780014                       # Number of cycles decode is idle (Cycle)
system.cpu.decode.blockedCycles               7722380                       # Number of cycles decode is blocked (Cycle)
system.cpu.decode.runCycles                   1776748                       # Number of cycles decode is running (Cycle)
system.cpu.decode.unblockCycles                763020                       # Number of cycles decode is unblocking (Cycle)
system.cpu.decode.squashCycles                  18716                       # Number of cycles decode is squashing (Cycle)
system.cpu.decode.branchResolved               306329                       # Number of times decode resolved a branch (Count)
system.cpu.decode.branchMispred                   832                       # Number of times decode detected a branch misprediction (Count)
system.cpu.decode.decodedInsts               19253416                       # Number of instructions handled by decode (Count)
system.cpu.decode.squashedInsts                  2809                       # Number of squashed instructions handled by decode (Count)
system.cpu.fetch.icacheStallCycles            1428321                       # Number of cycles fetch is stalled on an Icache miss (Cycle)
system.cpu.fetch.insts                       19119851                       # Number of instructions fetch has processed (Count)
system.cpu.fetch.branches                     2580692                       # Number of branches that fetch encountered (Count)
system.cpu.fetch.predictedBranches             348288                       # Number of branches that fetch has predicted taken (Count)
system.cpu.fetch.cycles                       9607359                       # Number of cycles fetch has run and was not squashing or blocked (Cycle)
system.cpu.fetch.squashCycles                   39044                       # Number of cycles fetch has spent squashing (Cycle)
system.cpu.fetch.miscStallCycles                  750                       # Number of cycles fetch has spent waiting on interrupts, or bad addresses, or out of MSHRs (Cycle)
system.cpu.fetch.pendingTrapStallCycles          4887                       # Number of stall cycles due to pending traps (Cycle)
system.cpu.fetch.icacheWaitRetryStallCycles           39                       # Number of stall cycles due to full MSHR (Cycle)
system.cpu.fetch.cacheLines                   1379096                       # Number of cache lines fetched (Count)
system.cpu.fetch.icacheSquashes                  5519                       # Number of outstanding Icache misses that were squashed (Count)
system.cpu.fetch.nisnDist::samples           11060878                       # Number of instructions fetched each cycle (Total) (Count)
system.cpu.fetch.nisnDist::mean              1.762836                       # Number of instructions fetched each cycle (Total) (Count)
system.cpu.fetch.nisnDist::stdev             3.165144                       # Number of instructions fetched each cycle (Total) (Count)
system.cpu.fetch.nisnDist::underflows               0      0.00%      0.00% # Number of instructions fetched each cycle (Total) (Count)
system.cpu.fetch.nisnDist::0                  8223652     74.35%     74.35% # Number of instructions fetched each cycle (Total) (Count)
system.cpu.fetch.nisnDist::1                    60626      0.55%     74.90% # Number of instructions fetched each cycle (Total) (Count)
system.cpu.fetch.nisnDist::2                    88870      0.80%     75.70% # Number of instructions fetched each cycle (Total) (Count)
system.cpu.fetch.nisnDist::3                   189211      1.71%     77.41% # Number of instructions fetched each cycle (Total) (Count)
system.cpu.fetch.nisnDist::4                    48501      0.44%     77.85% # Number of instructions fetched each cycle (Total) (Count)
system.cpu.fetch.nisnDist::5                   311100      2.81%     80.66% # Number of instructions fetched each cycle (Total) (Count)
system.cpu.fetch.nisnDist::6                    71920      0.65%     81.31% # Number of instructions fetched each cycle (Total) (Count)
system.cpu.fetch.nisnDist::7                    24497      0.22%     81.53% # Number of instructions fetched each cycle (Total) (Count)
system.cpu.fetch.nisnDist::8                  2042501     18.47%    100.00% # Number of instructions fetched each cycle (Total) (Count)
system.cpu.fetch.nisnDist::overflows                0      0.00%    100.00% # Number of instructions fetched each cycle (Total) (Count)
system.cpu.fetch.nisnDist::min_value                0                       # Number of instructions fetched each cycle (Total) (Count)
system.cpu.fetch.nisnDist::max_value                8                       # Number of instructions fetched each cycle (Total) (Count)
system.cpu.fetch.nisnDist::total             11060878                       # Number of instructions fetched each cycle (Total) (Count)
system.cpu.fetch.branchRate                  0.230383                       # Number of branch fetches per cycle (Ratio)
system.cpu.fetch.rate                        1.706865                       # Number of inst fetches per cycle ((Count/Cycle))
system.cpu.icache.demandHits::cpu.inst        1376473                       # number of demand (read+write) hits (Count)
system.cpu.icache.demandHits::total           1376473                       # number of demand (read+write) hits (Count)
system.cpu.icache.overallHits::cpu.inst       1376473                       # number of overall hits (Count)
system.cpu.icache.overallHits::total          1376473                       # number of overall hits (Count)
system.cpu.icache.demandMisses::cpu.inst         2623                       # number of demand (read+write) misses (Count)
system.cpu.icache.demandMisses::total            2623                       # number of demand (read+write) misses (Count)
system.cpu.icache.overallMisses::cpu.inst         2623                       # number of overall misses (Count)
system.cpu.icache.overallMisses::total           2623                       # number of overall misses (Count)
system.cpu.icache.demandMissLatency::cpu.inst    177981498                       # number of demand (read+write) miss ticks (Tick)
system.cpu.icache.demandMissLatency::total    177981498                       # number of demand (read+write) miss ticks (Tick)
system.cpu.icache.overallMissLatency::cpu.inst    177981498                       # number of overall miss ticks (Tick)
system.cpu.icache.overallMissLatency::total    177981498                       # number of overall miss ticks (Tick)
system.cpu.icache.demandAccesses::cpu.inst      1379096                       # number of demand (read+write) accesses (Count)
system.cpu.icache.demandAccesses::total       1379096                       # number of demand (read+write) accesses (Count)
system.cpu.icache.overallAccesses::cpu.inst      1379096                       # number of overall (read+write) accesses (Count)
system.cpu.icache.overallAccesses::total      1379096                       # number of overall (read+write) accesses (Count)
system.cpu.icache.demandMissRate::cpu.inst     0.001902                       # miss rate for demand accesses (Ratio)
system.cpu.icache.demandMissRate::total      0.001902                       # miss rate for demand accesses (Ratio)
system.cpu.icache.overallMissRate::cpu.inst     0.001902                       # miss rate for overall accesses (Ratio)
system.cpu.icache.overallMissRate::total     0.001902                       # miss rate for overall accesses (Ratio)
system.cpu.icache.demandAvgMissLatency::cpu.inst 67854.173847                       # average overall miss latency in ticks ((Tick/Count))
system.cpu.icache.demandAvgMissLatency::total 67854.173847                       # average overall miss latency in ticks ((Tick/Count))
system.cpu.icache.overallAvgMissLatency::cpu.inst 67854.173847                       # average overall miss latency ((Tick/Count))
system.cpu.icache.overallAvgMissLatency::total 67854.173847                       # average overall miss latency ((Tick/Count))
system.cpu.icache.blockedCycles::no_mshrs          601                       # number of cycles access was blocked (Cycle)
system.cpu.icache.blockedCycles::no_targets            0                       # number of cycles access was blocked (Cycle)
system.cpu.icache.blockedCauses::no_mshrs           13                       # number of times access was blocked (Count)
system.cpu.icache.blockedCauses::no_targets            0                       # number of times access was blocked (Count)
system.cpu.icache.avgBlocked::no_mshrs      46.230769                       # average number of cycles each access was blocked ((Cycle/Count))
system.cpu.icache.avgBlocked::no_targets          nan                       # average number of cycles each access was blocked ((Cycle/Count))
system.cpu.icache.writebacks::writebacks         1792                       # number of writebacks (Count)
system.cpu.icache.writebacks::total              1792                       # number of writebacks (Count)
system.cpu.icache.demandMshrHits::cpu.inst          574                       # number of demand (read+write) MSHR hits (Count)
system.cpu.icache.demandMshrHits::total           574                       # number of demand (read+write) MSHR hits (Count)
system.cpu.icache.overallMshrHits::cpu.inst          574                       # number of overall MSHR hits (Count)
system.cpu.icache.overallMshrHits::total          574                       # number of overall MSHR hits (Count)
system.cpu.icache.demandMshrMisses::cpu.inst         2049                       # number of demand (read+write) MSHR misses (Count)
system.cpu.icache.demandMshrMisses::total         2049                       # number of demand (read+write) MSHR misses (Count)
system.cpu.icache.overallMshrMisses::cpu.inst         2049                       # number of overall MSHR misses (Count)
system.cpu.icache.overallMshrMisses::total         2049                       # number of overall MSHR misses (Count)
system.cpu.icache.demandMshrMissLatency::cpu.inst    139593999                       # number of demand (read+write) MSHR miss ticks (Tick)
system.cpu.icache.demandMshrMissLatency::total    139593999                       # number of demand (read+write) MSHR miss ticks (Tick)
system.cpu.icache.overallMshrMissLatency::cpu.inst    139593999                       # number of overall MSHR miss ticks (Tick)
system.cpu.icache.overallMshrMissLatency::total    139593999                       # number of overall MSHR miss ticks (Tick)
system.cpu.icache.demandMshrMissRate::cpu.inst     0.001486                       # mshr miss ratio for demand accesses (Ratio)
system.cpu.icache.demandMshrMissRate::total     0.001486                       # mshr miss ratio for demand accesses (Ratio)
system.cpu.icache.overallMshrMissRate::cpu.inst     0.001486                       # mshr miss ratio for overall accesses (Ratio)
system.cpu.icache.overallMshrMissRate::total     0.001486                       # mshr miss ratio for overall accesses (Ratio)
system.cpu.icache.demandAvgMshrMissLatency::cpu.inst 68127.866764                       # average overall mshr miss latency ((Tick/Count))
system.cpu.icache.demandAvgMshrMissLatency::total 68127.866764                       # average overall mshr miss latency ((Tick/Count))
system.cpu.icache.overallAvgMshrMissLatency::cpu.inst 68127.866764                       # average overall mshr miss latency ((Tick/Count))
system.cpu.icache.overallAvgMshrMissLatency::total 68127.866764                       # average overall mshr miss latency ((Tick/Count))
system.cpu.icache.replacements                   1792                       # number of replacements (Count)
system.cpu.icache.ReadReq.hits::cpu.inst      1376473                       # number of ReadReq hits (Count)
system.cpu.icache.ReadReq.hits::total         1376473                       # number of ReadReq hits (Count)
system.cpu.icache.ReadReq.misses::cpu.inst         2623                       # number of ReadReq misses (Count)
system.cpu.icache.ReadReq.misses::total          2623                       # number of ReadReq misses (Count)
system.cpu.icache.ReadReq.missLatency::cpu.inst    177981498                       # number of ReadReq miss ticks (Tick)
system.cpu.icache.ReadReq.missLatency::total    177981498                       # number of ReadReq miss ticks (Tick)
system.cpu.icache.ReadReq.accesses::cpu.inst      1379096                       # number of ReadReq accesses(hits+misses) (Count)
system.cpu.icache.ReadReq.accesses::total      1379096                       # number of ReadReq accesses(hits+misses) (Count)
system.cpu.icache.ReadReq.missRate::cpu.inst     0.001902                       # miss rate for ReadReq accesses (Ratio)
system.cpu.icache.ReadReq.missRate::total     0.001902                       # miss rate for ReadReq accesses (Ratio)
system.cpu.icache.ReadReq.avgMissLatency::cpu.inst 67854.173847                       # average ReadReq miss latency ((Tick/Count))
system.cpu.icache.ReadReq.avgMissLatency::total 67854.173847                       # average ReadReq miss latency ((Tick/Count))
system.cpu.icache.ReadReq.mshrHits::cpu.inst          574                       # number of ReadReq MSHR hits (Count)
system.cpu.icache.ReadReq.mshrHits::total          574                       # number of ReadReq MSHR hits (Count)
system.cpu.icache.ReadReq.mshrMisses::cpu.inst         2049                       # number of ReadReq MSHR misses (Count)
system.cpu.icache.ReadReq.mshrMisses::total         2049                       # number of ReadReq MSHR misses (Count)
system.cpu.icache.ReadReq.mshrMissLatency::cpu.inst    139593999                       # number of ReadReq MSHR miss ticks (Tick)
system.cpu.icache.ReadReq.mshrMissLatency::total    139593999                       # number of ReadReq MSHR miss ticks (Tick)
system.cpu.icache.ReadReq.mshrMissRate::cpu.inst     0.001486                       # mshr miss rate for ReadReq accesses (Ratio)
system.cpu.icache.ReadReq.mshrMissRate::total     0.001486                       # mshr miss rate for ReadReq accesses (Ratio)
system.cpu.icache.ReadReq.avgMshrMissLatency::cpu.inst 68127.866764                       # average ReadReq mshr miss latency ((Tick/Count))
system.cpu.icache.ReadReq.avgMshrMissLatency::total 68127.866764                       # average ReadReq mshr miss latency ((Tick/Count))
system.cpu.icache.power_state.pwrStateResidencyTicks::UNDEFINED   5600868000                       # Cumulative time (in ticks) in various power states (Tick)
system.cpu.icache.tags.tagsInUse           255.295453                       # Average ticks per tags in use ((Tick/Count))
system.cpu.icache.tags.totalRefs              1378521                       # Total number of references to valid blocks. (Count)
system.cpu.icache.tags.sampledRefs               2048                       # Sample count of references to valid blocks. (Count)
system.cpu.icache.tags.avgRefs             673.105957                       # Average number of references to valid blocks. ((Count/Count))
system.cpu.icache.tags.warmupTick               87500                       # The tick when the warmup percentage was hit. (Tick)
system.cpu.icache.tags.occupancies::cpu.inst   255.295453                       # Average occupied blocks per tick, per requestor ((Count/Tick))
system.cpu.icache.tags.avgOccs::cpu.inst     0.997248                       # Average percentage of cache occupancy ((Ratio/Tick))
system.cpu.icache.tags.avgOccs::total        0.997248                       # Average percentage of cache occupancy ((Ratio/Tick))
system.cpu.icache.tags.occupanciesTaskId::1024          256                       # Occupied blocks per task id (Count)
system.cpu.icache.tags.ageTaskId_1024::0           76                       # Occupied blocks per task id, per block age (Count)
system.cpu.icache.tags.ageTaskId_1024::1           97                       # Occupied blocks per task id, per block age (Count)
system.cpu.icache.tags.ageTaskId_1024::3           83                       # Occupied blocks per task id, per block age (Count)
system.cpu.icache.tags.ratioOccsTaskId::1024            1                       # Ratio of occupied blocks and all blocks, per task id (Ratio)
system.cpu.icache.tags.tagAccesses            5518432                       # Number of tag accesses (Count)
system.cpu.icache.tags.dataAccesses           5518432                       # Number of data accesses (Count)
system.cpu.icache.tags.power_state.pwrStateResidencyTicks::UNDEFINED   5600868000                       # Cumulative time (in ticks) in various power states (Tick)
system.cpu.iew.idleCycles                           0                       # Number of cycles IEW is idle (Cycle)
system.cpu.iew.squashCycles                     18716                       # Number of cycles IEW is squashing (Cycle)
system.cpu.iew.blockCycles                    2431271                       # Number of cycles IEW is blocking (Cycle)
system.cpu.iew.unblockCycles                    47179                       # Number of cycles IEW is unblocking (Cycle)
system.cpu.iew.dispatchedInsts               19075949                       # Number of instructions dispatched to IQ (Count)
system.cpu.iew.dispSquashedInsts                 2293                       # Number of squashed instructions skipped by dispatch (Count)
system.cpu.iew.dispLoadInsts                  1358839                       # Number of dispatched load instructions (Count)
system.cpu.iew.dispStoreInsts                 1016208                       # Number of dispatched store instructions (Count)
system.cpu.iew.dispNonSpecInsts                   403                       # Number of dispatched non-speculative instructions (Count)
system.cpu.iew.iqFullEvents                     12953                       # Number of times the IQ has become full, causing a stall (Count)
system.cpu.iew.lsqFullEvents                    27233                       # Number of times the LSQ has become full, causing a stall (Count)
system.cpu.iew.memOrderViolationEvents            326                       # Number of memory order violations (Count)
system.cpu.iew.predictedTakenIncorrect           8638                       # Number of branches that were predicted taken incorrectly (Count)
system.cpu.iew.predictedNotTakenIncorrect        11827                       # Number of branches that were predicted not taken incorrectly (Count)
system.cpu.iew.branchMispredicts                20465                       # Number of branch mispredicts detected at execute (Count)
system.cpu.iew.instsToCommit                 18767262                       # Cumulative count of insts sent to commit (Count)
system.cpu.iew.writebackCount                18757275                       # Cumulative count of insts written-back (Count)
system.cpu.iew.producerInst                  13564942                       # Number of instructions producing a value (Count)
system.cpu.iew.consumerInst                  20585237                       # Number of instructions consuming a value (Count)
system.cpu.iew.wbRate                        1.674497                       # Insts written-back per cycle ((Count/Cycle))
system.cpu.iew.wbFanout                      0.658965                       # Average fanout of values written-back ((Count/Count))
system.cpu.lsq0.forwLoads                      341541                       # Number of loads that had data forwarded from stores (Count)
system.cpu.lsq0.squashedLoads                  112041                       # Number of loads squashed (Count)
system.cpu.lsq0.ignoredResponses                   44                       # Number of memory responses ignored because the instruction is squashed (Count)
system.cpu.lsq0.memOrderViolation                 326                       # Number of memory ordering violations (Count)
system.cpu.lsq0.squashedStores                  40460                       # Number of stores squashed (Count)
system.cpu.lsq0.rescheduledLoads                 9312                       # Number of loads that were rescheduled (Count)
system.cpu.lsq0.blockedByCache                   2008                       # Number of times an access to memory failed due to the cache being blocked (Count)
system.cpu.lsq0.loadToUse::samples            1246798                       # Distribution of cycle latency between the first time a load is issued and its completion (Unspecified)
system.cpu.lsq0.loadToUse::mean             15.202766                       # Distribution of cycle latency between the first time a load is issued and its completion (Unspecified)
system.cpu.lsq0.loadToUse::stdev            48.685077                       # Distribution of cycle latency between the first time a load is issued and its completion (Unspecified)
system.cpu.lsq0.loadToUse::0-9                1144186     91.77%     91.77% # Distribution of cycle latency between the first time a load is issued and its completion (Unspecified)
system.cpu.lsq0.loadToUse::10-19                 2843      0.23%     92.00% # Distribution of cycle latency between the first time a load is issued and its completion (Unspecified)
system.cpu.lsq0.loadToUse::20-29                 6794      0.54%     92.54% # Distribution of cycle latency between the first time a load is issued and its completion (Unspecified)
system.cpu.lsq0.loadToUse::30-39                 1101      0.09%     92.63% # Distribution of cycle latency between the first time a load is issued and its completion (Unspecified)
system.cpu.lsq0.loadToUse::40-49                  868      0.07%     92.70% # Distribution of cycle latency between the first time a load is issued and its completion (Unspecified)
[...]
system.mem_ctrls.dram.perBankWrBursts::10         1518                       # Per bank write bursts (Count)
system.mem_ctrls.dram.perBankWrBursts::11         1455                       # Per bank write bursts (Count)
system.mem_ctrls.dram.perBankWrBursts::12         1453                       # Per bank write bursts (Count)
system.mem_ctrls.dram.perBankWrBursts::13         1546                       # Per bank write bursts (Count)
system.mem_ctrls.dram.perBankWrBursts::14         1434                       # Per bank write bursts (Count)
system.mem_ctrls.dram.perBankWrBursts::15         1553                       # Per bank write bursts (Count)
system.mem_ctrls.dram.totQLat               539770000                       # Total ticks spent queuing (Tick)
system.mem_ctrls.dram.totBusLat             314280000                       # Total ticks spent in databus transfers (Tick)
system.mem_ctrls.dram.totMemAccLat         1718320000                       # Total ticks spent from burst creation until serviced by the DRAM (Tick)
system.mem_ctrls.dram.avgQLat                 8587.41                       # Average queueing delay per DRAM burst ((Tick/Count))
system.mem_ctrls.dram.avgBusLat               5000.00                       # Average bus latency per DRAM burst ((Tick/Count))
system.mem_ctrls.dram.avgMemAccLat           27337.41                       # Average memory access latency per DRAM burst ((Tick/Count))
system.mem_ctrls.dram.readRowHits               54494                       # Number of row buffer hits during reads (Count)
system.mem_ctrls.dram.writeRowHits              21828                       # Number of row buffer hits during writes (Count)
system.mem_ctrls.dram.readRowHitRate            86.70                       # Row buffer hit rate for reads (Ratio)
system.mem_ctrls.dram.writeRowHitRate           87.57                       # Row buffer hit rate for writes (Ratio)
system.mem_ctrls.dram.bytesPerActivate::samples        11448                       # Bytes accessed per row activation (Byte)
system.mem_ctrls.dram.bytesPerActivate::mean   490.560447                       # Bytes accessed per row activation (Byte)
system.mem_ctrls.dram.bytesPerActivate::gmean   307.106953                       # Bytes accessed per row activation (Byte)
system.mem_ctrls.dram.bytesPerActivate::stdev   389.416871                       # Bytes accessed per row activation (Byte)
system.mem_ctrls.dram.bytesPerActivate::0-127         2469     21.57%     21.57% # Bytes accessed per row activation (Byte)
system.mem_ctrls.dram.bytesPerActivate::128-255         2210     19.30%     40.87% # Bytes accessed per row activation (Byte)
system.mem_ctrls.dram.bytesPerActivate::256-383          902      7.88%     48.75% # Bytes accessed per row activation (Byte)
system.mem_ctrls.dram.bytesPerActivate::384-511          787      6.87%     55.63% # Bytes accessed per row activation (Byte)
system.mem_ctrls.dram.bytesPerActivate::512-639          635      5.55%     61.17% # Bytes accessed per row activation (Byte)
system.mem_ctrls.dram.bytesPerActivate::640-767          557      4.87%     66.04% # Bytes accessed per row activation (Byte)
system.mem_ctrls.dram.bytesPerActivate::768-895          556      4.86%     70.89% # Bytes accessed per row activation (Byte)
system.mem_ctrls.dram.bytesPerActivate::896-1023          392      3.42%     74.32% # Bytes accessed per row activation (Byte)
system.mem_ctrls.dram.bytesPerActivate::1024-1151         2940     25.68%    100.00% # Bytes accessed per row activation (Byte)
system.mem_ctrls.dram.bytesPerActivate::total        11448                       # Bytes accessed per row activation (Byte)
system.mem_ctrls.dram.bytesRead               4022784                       # Total bytes read (Byte)
system.mem_ctrls.dram.bytesWritten            1595200                       # Total bytes written (Byte)
system.mem_ctrls.dram.avgRdBW              718.242958                       # Average DRAM read bandwidth in MiBytes/s ((Byte/Second))
system.mem_ctrls.dram.avgWrBW              284.812997                       # Average DRAM write bandwidth in MiBytes/s ((Byte/Second))
system.mem_ctrls.dram.peakBW                 12800.00                       # Theoretical peak bandwidth in MiByte/s ((Byte/Second))
system.mem_ctrls.dram.busUtil                    7.84                       # Data bus utilization in percentage (Ratio)
system.mem_ctrls.dram.busUtilRead                5.61                       # Data bus utilization in percentage for reads (Ratio)
system.mem_ctrls.dram.busUtilWrite               2.23                       # Data bus utilization in percentage for writes (Ratio)
system.mem_ctrls.dram.pageHitRate               86.95                       # Row buffer hit rate, read and write combined (Ratio)
system.mem_ctrls.dram.power_state.pwrStateResidencyTicks::UNDEFINED   5600868000                       # Cumulative time (in ticks) in various power states (Tick)
system.mem_ctrls.dram.rank0.actEnergy        41997480                       # Energy for activate commands per rank (pJ) (Joule)
system.mem_ctrls.dram.rank0.preEnergy        22295625                       # Energy for precharge commands per rank (pJ) (Joule)
system.mem_ctrls.dram.rank0.readEnergy      229479600                       # Energy for read commands per rank (pJ) (Joule)
system.mem_ctrls.dram.rank0.writeEnergy      66722040                       # Energy for write commands per rank (pJ) (Joule)
system.mem_ctrls.dram.rank0.refreshEnergy 441926160.000000                       # Energy for refresh commands per rank (pJ) (Joule)
system.mem_ctrls.dram.rank0.actBackEnergy   1914816960                       # Energy for active background per rank (pJ) (Joule)
system.mem_ctrls.dram.rank0.preBackEnergy    538256160                       # Energy for precharge background per rank (pJ) (Joule)
system.mem_ctrls.dram.rank0.actPowerDownEnergy            0                       # Energy for active power-down per rank (pJ) (Joule)
system.mem_ctrls.dram.rank0.prePowerDownEnergy            0                       # Energy for precharge power-down per rank (pJ) (Joule)
system.mem_ctrls.dram.rank0.selfRefreshEnergy            0                       # Energy for self refresh per rank (pJ) (Joule)
system.mem_ctrls.dram.rank0.totalEnergy    3255494025                       # Total energy per rank (pJ) (Joule)
system.mem_ctrls.dram.rank0.averagePower   581.248125                       # Core power per rank (mW) (Watt)
system.mem_ctrls.dram.rank0.totalIdleTime            0                       # Total Idle time Per DRAM Rank (Tick)
system.mem_ctrls.dram.rank0.pwrStateTime::IDLE   1377223000                       # Time in different power states (Tick)
system.mem_ctrls.dram.rank0.pwrStateTime::REF    186940000                       # Time in different power states (Tick)
system.mem_ctrls.dram.rank0.pwrStateTime::SREF            0                       # Time in different power states (Tick)
system.mem_ctrls.dram.rank0.pwrStateTime::PRE_PDN            0                       # Time in different power states (Tick)
system.mem_ctrls.dram.rank0.pwrStateTime::ACT   4036705000                       # Time in different power states (Tick)
system.mem_ctrls.dram.rank0.pwrStateTime::ACT_PDN            0                       # Time in different power states (Tick)
system.mem_ctrls.dram.rank1.actEnergy        39819780                       # Energy for activate commands per rank (pJ) (Joule)
system.mem_ctrls.dram.rank1.preEnergy        21145740                       # Energy for precharge commands per rank (pJ) (Joule)
system.mem_ctrls.dram.rank1.readEnergy      219312240                       # Energy for read commands per rank (pJ) (Joule)
system.mem_ctrls.dram.rank1.writeEnergy      63360360                       # Energy for write commands per rank (pJ) (Joule)
system.mem_ctrls.dram.rank1.refreshEnergy 441926160.000000                       # Energy for refresh commands per rank (pJ) (Joule)
system.mem_ctrls.dram.rank1.actBackEnergy   1903370220                       # Energy for active background per rank (pJ) (Joule)
system.mem_ctrls.dram.rank1.preBackEnergy    547895520                       # Energy for precharge background per rank (pJ) (Joule)
system.mem_ctrls.dram.rank1.actPowerDownEnergy            0                       # Energy for active power-down per rank (pJ) (Joule)
system.mem_ctrls.dram.rank1.prePowerDownEnergy            0                       # Energy for precharge power-down per rank (pJ) (Joule)
system.mem_ctrls.dram.rank1.selfRefreshEnergy            0                       # Energy for self refresh per rank (pJ) (Joule)
system.mem_ctrls.dram.rank1.totalEnergy    3236830020                       # Total energy per rank (pJ) (Joule)
system.mem_ctrls.dram.rank1.averagePower   577.915784                       # Core power per rank (mW) (Watt)
system.mem_ctrls.dram.rank1.totalIdleTime            0                       # Total Idle time Per DRAM Rank (Tick)
system.mem_ctrls.dram.rank1.pwrStateTime::IDLE   1401931250                       # Time in different power states (Tick)
system.mem_ctrls.dram.rank1.pwrStateTime::REF    186940000                       # Time in different power states (Tick)
system.mem_ctrls.dram.rank1.pwrStateTime::SREF            0                       # Time in different power states (Tick)
system.mem_ctrls.dram.rank1.pwrStateTime::PRE_PDN            0                       # Time in different power states (Tick)
system.mem_ctrls.dram.rank1.pwrStateTime::ACT   4011996750                       # Time in different power states (Tick)
system.mem_ctrls.dram.rank1.pwrStateTime::ACT_PDN            0                       # Time in different power states (Tick)
system.mem_ctrls.power_state.pwrStateResidencyTicks::UNDEFINED   5600868000                       # Cumulative time (in ticks) in various power states (Tick)
system.membus.transDist::ReadResp               61397                       # Transaction distribution (Count)
system.membus.transDist::WritebackDirty         24944                       # Transaction distribution (Count)
system.membus.transDist::CleanEvict             33893                       # Transaction distribution (Count)
system.membus.transDist::ReadExReq               1482                       # Transaction distribution (Count)
system.membus.transDist::ReadExResp              1482                       # Transaction distribution (Count)
system.membus.transDist::ReadSharedReq          61397                       # Transaction distribution (Count)
system.membus.transDist::InvalidateReq            141                       # Transaction distribution (Count)
system.membus.pktCount_system.l2.mem_side_port::system.mem_ctrls.port       184736                       # Packet count per connected requestor and responder (Count)
system.membus.pktCount::total                  184736                       # Packet count per connected requestor and responder (Count)
system.membus.pktSize_system.l2.mem_side_port::system.mem_ctrls.port      5620672                       # Cumulative packet size per connected requestor and responder (Byte)
system.membus.pktSize::total                  5620672                       # Cumulative packet size per connected requestor and responder (Byte)
system.membus.snoops                                0                       # Total snoops (Count)
system.membus.snoopTraffic                          0                       # Total snoop traffic (Byte)
system.membus.snoopFanout::samples              63020                       # Request fanout histogram (Count)
system.membus.snoopFanout::mean                     0                       # Request fanout histogram (Count)
system.membus.snoopFanout::stdev                    0                       # Request fanout histogram (Count)
system.membus.snoopFanout::underflows               0      0.00%      0.00% # Request fanout histogram (Count)
system.membus.snoopFanout::0                    63020    100.00%    100.00% # Request fanout histogram (Count)
system.membus.snoopFanout::1                        0      0.00%    100.00% # Request fanout histogram (Count)
system.membus.snoopFanout::overflows                0      0.00%    100.00% # Request fanout histogram (Count)
system.membus.snoopFanout::min_value                0                       # Request fanout histogram (Count)
system.membus.snoopFanout::max_value                0                       # Request fanout histogram (Count)
system.membus.snoopFanout::total                63020                       # Request fanout histogram (Count)
system.membus.power_state.pwrStateResidencyTicks::UNDEFINED   5600868000                       # Cumulative time (in ticks) in various power states (Tick)
system.membus.reqLayer0.occupancy           234141500                       # Layer occupancy (ticks) (Tick)
system.membus.reqLayer0.utilization               0.0                       # Layer utilization (Ratio)
system.membus.respLayer1.occupancy          330543500                       # Layer occupancy (ticks) (Tick)
system.membus.respLayer1.utilization              0.1                       # Layer utilization (Ratio)
system.membus.snoop_filter.totRequests         121857                       # Total number of requests made to the snoop filter. (Count)
system.membus.snoop_filter.hitSingleRequests        58837                       # Number of requests hitting in the snoop filter with a single holder of the requested data. (Count)
system.membus.snoop_filter.hitMultiRequests            0                       # Number of requests hitting in the snoop filter with multiple (>1) holders of the requested data. (Count)
system.membus.snoop_filter.totSnoops                0                       # Total number of snoops made to the snoop filter. (Count)
system.membus.snoop_filter.hitSingleSnoops            0                       # Number of snoops hitting in the snoop filter with a single holder of the requested data. (Count)
system.membus.snoop_filter.hitMultiSnoops            0                       # Number of snoops hitting in the snoop filter with multiple (>1) holders of the requested data. (Count)
system.tol2bus.transDist::ReadResp              65571                       # Transaction distribution (Count)
system.tol2bus.transDist::WritebackDirty        52191                       # Transaction distribution (Count)
system.tol2bus.transDist::WritebackClean         1792                       # Transaction distribution (Count)
system.tol2bus.transDist::CleanEvict            72035                       # Transaction distribution (Count)
system.tol2bus.transDist::ReadExReq              2121                       # Transaction distribution (Count)
system.tol2bus.transDist::ReadExResp             2121                       # Transaction distribution (Count)
system.tol2bus.transDist::ReadCleanReq           2049                       # Transaction distribution (Count)
system.tol2bus.transDist::ReadSharedReq         63523                       # Transaction distribution (Count)
system.tol2bus.transDist::InvalidateReq           141                       # Transaction distribution (Count)
system.tol2bus.transDist::InvalidateResp          141                       # Transaction distribution (Count)
system.tol2bus.pktCount_system.cpu.icache.mem_side_port::system.l2.cpu_side_port         5889                       # Packet count per connected requestor and responder (Count)
system.tol2bus.pktCount_system.cpu.dcache.mem_side_port::system.l2.cpu_side_port       196331                       # Packet count per connected requestor and responder (Count)
system.tol2bus.pktCount::total                 202220                       # Packet count per connected requestor and responder (Count)
system.tol2bus.pktSize_system.cpu.icache.mem_side_port::system.l2.cpu_side_port       245760                       # Cumulative packet size per connected requestor and responder (Byte)
system.tol2bus.pktSize_system.cpu.dcache.mem_side_port::system.l2.cpu_side_port      5945024                       # Cumulative packet size per connected requestor and responder (Byte)
system.tol2bus.pktSize::total                 6190784                       # Cumulative packet size per connected requestor and responder (Byte)
system.tol2bus.snoops                           59465                       # Total snoops (Count)
system.tol2bus.snoopTraffic                   1596416                       # Total snoop traffic (Byte)
system.tol2bus.snoopFanout::samples            127299                       # Request fanout histogram (Count)
system.tol2bus.snoopFanout::mean             0.006222                       # Request fanout histogram (Count)
system.tol2bus.snoopFanout::stdev            0.078632                       # Request fanout histogram (Count)
system.tol2bus.snoopFanout::underflows              0      0.00%      0.00% # Request fanout histogram (Count)
system.tol2bus.snoopFanout::0                  126507     99.38%     99.38% # Request fanout histogram (Count)
system.tol2bus.snoopFanout::1                     792      0.62%    100.00% # Request fanout histogram (Count)
system.tol2bus.snoopFanout::2                       0      0.00%    100.00% # Request fanout histogram (Count)
system.tol2bus.snoopFanout::overflows               0      0.00%    100.00% # Request fanout histogram (Count)
system.tol2bus.snoopFanout::min_value               0                       # Request fanout histogram (Count)
system.tol2bus.snoopFanout::max_value               1                       # Request fanout histogram (Count)
system.tol2bus.snoopFanout::total              127299                       # Request fanout histogram (Count)
system.tol2bus.power_state.pwrStateResidencyTicks::UNDEFINED   5600868000                       # Cumulative time (in ticks) in various power states (Tick)
system.tol2bus.reqLayer0.occupancy           96232500                       # Layer occupancy (ticks) (Tick)
system.tol2bus.reqLayer0.utilization              0.0                       # Layer utilization (Ratio)
system.tol2bus.respLayer0.occupancy           3073497                       # Layer occupancy (ticks) (Tick)
system.tol2bus.respLayer0.utilization             0.0                       # Layer utilization (Ratio)
system.tol2bus.respLayer1.occupancy          98536500                       # Layer occupancy (ticks) (Tick)
system.tol2bus.respLayer1.utilization             0.0                       # Layer utilization (Ratio)
system.tol2bus.snoop_filter.totRequests        134387                       # Total number of requests made to the snoop filter. (Count)
system.tol2bus.snoop_filter.hitSingleRequests        66553                       # Number of requests hitting in the snoop filter with a single holder of the requested data. (Count)
system.tol2bus.snoop_filter.hitMultiRequests            1                       # Number of requests hitting in the snoop filter with multiple (>1) holders of the requested data. (Count)
system.tol2bus.snoop_filter.totSnoops             791                       # Total number of snoops made to the snoop filter. (Count)
system.tol2bus.snoop_filter.hitSingleSnoops          791                       # Number of snoops hitting in the snoop filter with a single holder of the requested data. (Count)
system.tol2bus.snoop_filter.hitMultiSnoops            0                       # Number of snoops hitting in the snoop filter with multiple (>1) holders of the requested data. (Count)
system.voltage_domain.voltage                       1                       # Voltage in Volts (Volt)
system.workload.inst.arm                            0                       # number of arm instructions executed (Count)
system.workload.inst.quiesce                        0                       # number of quiesce instructions executed (Count)

---------- End Simulation Statistics   ----------
