
---------- Begin Simulation Statistics ----------
simSeconds                                   0.020965                       # Number of seconds simulated (Second)
simTicks                                  20965095000                       # Number of ticks simulated (Tick)
finalTick                                 20965095000                       # Number of ticks from beginning of simulation (restored from checkpoints and never reset) (Tick)
simFreq                                  1000000000000                       # The number of ticks per simulated second ((Tick/Second))
hostSeconds                                    179.80                       # Real time elapsed on the host (Second)
hostTickRate                                116602352                       # The number of ticks simulated per host second (ticks/s) ((Tick/Second))
hostMemory                                     680116                       # Number of bytes of host memory used (Byte)
simInsts                                     50114029                       # Number of instructions simulated (Count)
simOps                                       50383651                       # Number of ops (including micro ops) simulated (Count)
hostInstRate                                   278720                       # Simulator instruction rate (inst/s) ((Count/Second))
hostOpRate                                     280220                       # Simulator op (including micro ops) rate (op/s) ((Count/Second))
system.clk_domain.clock                          1000                       # Clock period in ticks (Tick)
system.cpu.numCycles                         41930191                       # Number of cpu cycles simulated (Cycle)
system.cpu.numWorkItemsStarted                      0                       # Number of work items this cpu started (Count)
system.cpu.numWorkItemsCompleted                    0                       # Number of work items this cpu completed (Count)
system.cpu.instsAdded                        51302999                       # Number of instructions added to the IQ (excludes non-spec) (Count)
system.cpu.nonSpecInstsAdded                      160                       # Number of non-speculative instructions added to the IQ (Count)
system.cpu.instsIssued                       52089395                       # Number of instructions issued (Count)
system.cpu.squashedInstsIssued                   4137                       # Number of squashed instructions issued (Count)
system.cpu.squashedInstsExamined               919431                       # Number of squashed instructions iterated over during squash; mainly for profiling (Count)
system.cpu.squashedOperandsExamined            854331                       # Number of squashed operands that are examined and possibly removed from graph (Count)
system.cpu.squashedNonSpecRemoved                  41                       # Number of squashed non-spec instructions that were removed (Count)
system.cpu.numIssuedDist::samples            41809630                       # Number of insts issued each cycle (Count)
system.cpu.numIssuedDist::mean               1.245871                       # Number of insts issued each cycle (Count)
system.cpu.numIssuedDist::stdev              2.281474                       # Number of insts issued each cycle (Count)
system.cpu.numIssuedDist::underflows                0      0.00%      0.00% # Number of insts issued each cycle (Count)
system.cpu.numIssuedDist::0                  27751203     66.38%     66.38% # Number of insts issued each cycle (Count)
system.cpu.numIssuedDist::1                   4235520     10.13%     76.51% # Number of insts issued each cycle (Count)
system.cpu.numIssuedDist::2                   1902384      4.55%     81.06% # Number of insts issued each cycle (Count)
system.cpu.numIssuedDist::3                   1261986      3.02%     84.07% # Number of insts issued each cycle (Count)
system.cpu.numIssuedDist::4                   1548763      3.70%     87.78% # Number of insts issued each cycle (Count)
system.cpu.numIssuedDist::5                   1146039      2.74%     90.52% # Number of insts issued each cycle (Count)
system.cpu.numIssuedDist::6                   1393708      3.33%     93.85% # Number of insts issued each cycle (Count)
system.cpu.numIssuedDist::7                    584562      1.40%     95.25% # Number of insts issued each cycle (Count)
system.cpu.numIssuedDist::8                   1985465      4.75%    100.00% # Number of insts issued each cycle (Count)
system.cpu.numIssuedDist::overflows                 0      0.00%    100.00% # Number of insts issued each cycle (Count)
system.cpu.numIssuedDist::min_value                 0                       # Number of insts issued each cycle (Count)
system.cpu.numIssuedDist::max_value                 8                       # Number of insts issued each cycle (Count)
system.cpu.numIssuedDist::total              41809630                       # Number of insts issued each cycle (Count)
system.cpu.statFuBusy::No_OpClass                   0      0.00%      0.00% # attempts to use FU when none available (Count)
system.cpu.statFuBusy::IntAlu                  153290     15.19%     15.19% # attempts to use FU when none available (Count)
system.cpu.statFuBusy::IntMult                      0      0.00%     15.19% # attempts to use FU when none available (Count)
system.cpu.statFuBusy::IntDiv                    1147      0.11%     15.30% # attempts to use FU when none available (Count)
system.cpu.statFuBusy::FloatAdd                     0      0.00%     15.30% # attempts to use FU when none available (Count)
system.cpu.statFuBusy::FloatCmp                     0      0.00%     15.30% # attempts to use FU when none available (Count)
system.cpu.statFuBusy::FloatCvt                     0      0.00%     15.30% # attempts to use FU when none available (Count)
system.cpu.statFuBusy::FloatMult                    0      0.00%     15.30% # attempts to use FU when none available (Count)
system.cpu.statFuBusy::FloatMultAcc                 0      0.00%     15.30% # attempts to use FU when none available (Count)
system.cpu.statFuBusy::FloatDiv                     0      0.00%     15.30% # attempts to use FU when none available (Count)
system.cpu.statFuBusy::FloatMisc                    0      0.00%     15.30% # attempts to use FU when none available (Count)
system.cpu.statFuBusy::FloatSqrt                    0      0.00%     15.30% # attempts to use FU when none available (Count)
system.cpu.statFuBusy::SimdAdd                      0      0.00%     15.30% # attempts to use FU when none available (Count)
system.cpu.statFuBusy::SimdAddAcc                   0      0.00%     15.30% # attempts to use FU when none available (Count)
system.cpu.statFuBusy::SimdAlu                 815085     80.77%     96.08% # attempts to use FU when none available (Count)
system.cpu.statFuBusy::SimdCmp                     17      0.00%     96.08% # attempts to use FU when none available (Count)
system.cpu.statFuBusy::SimdCvt                      0      0.00%     96.08% # attempts to use FU when none available (Count)
system.cpu.statFuBusy::SimdMisc                     0      0.00%     96.08% # attempts to use FU when none available (Count)
system.cpu.statFuBusy::SimdMult                     0      0.00%     96.08% # attempts to use FU when none available (Count)
system.cpu.statFuBusy::SimdMultAcc                  0      0.00%     96.08% # attempts to use FU when none available (Count)
system.cpu.statFuBusy::SimdShift                    0      0.00%     96.08% # attempts to use FU when none available (Count)
system.cpu.statFuBusy::SimdShiftAcc                 0      0.00%     96.08% # attempts to use FU when none available (Count)
system.cpu.statFuBusy::SimdDiv                      0      0.00%     96.08% # attempts to use FU when none available (Count)
system.cpu.statFuBusy::SimdSqrt                     0      0.00%     96.08% # attempts to use FU when none available (Count)
system.cpu.statFuBusy::SimdFloatAdd                 0      0.00%     96.08% # attempts to use FU when none available (Count)
system.cpu.statFuBusy::SimdFloatAlu                 0      0.00%     96.08% # attempts to use FU when none available (Count)
system.cpu.statFuBusy::SimdFloatCmp                 0      0.00%     96.08% # attempts to use FU when none available (Count)
system.cpu.statFuBusy::SimdFloatCvt                 0      0.00%     96.08% # attempts to use FU when none available (Count)
system.cpu.statFuBusy::SimdFloatDiv                 0      0.00%     96.08% # attempts to use FU when none available (Count)
system.cpu.statFuBusy::SimdFloatMisc                0      0.00%     96.08% # attempts to use FU when none available (Count)
system.cpu.statFuBusy::SimdFloatMult                0      0.00%     96.08% # attempts to use FU when none available (Count)
system.cpu.statFuBusy::SimdFloatMultAcc             0      0.00%     96.08% # attempts to use FU when none available (Count)
system.cpu.statFuBusy::SimdFloatSqrt                0      0.00%     96.08% # attempts to use FU when none available (Count)
system.cpu.statFuBusy::SimdReduceAdd                0      0.00%     96.08% # attempts to use FU when none available (Count)
system.cpu.statFuBusy::SimdReduceAlu                0      0.00%     96.08% # attempts to use FU when none available (Count)
system.cpu.statFuBusy::SimdReduceCmp                0      0.00%     96.08% # attempts to use FU when none available (Count)
system.cpu.statFuBusy::SimdFloatReduceAdd            0      0.00%     96.08% # attempts to use FU when none available (Count)
system.cpu.statFuBusy::SimdFloatReduceCmp            0      0.00%     96.08% # attempts to use FU when none available (Count)
system.cpu.statFuBusy::SimdAes                      0      0.00%     96.08% # attempts to use FU when none available (Count)
system.cpu.statFuBusy::SimdAesMix                   0      0.00%     96.08% # attempts to use FU when none available (Count)
system.cpu.statFuBusy::SimdSha1Hash                 0      0.00%     96.08% # attempts to use FU when none available (Count)
system.cpu.statFuBusy::SimdSha1Hash2                0      0.00%     96.08% # attempts to use FU when none available (Count)
system.cpu.statFuBusy::SimdSha256Hash               0      0.00%     96.08% # attempts to use FU when none available (Count)
system.cpu.statFuBusy::SimdSha256Hash2              0      0.00%     96.08% # attempts to use FU when none available (Count)
system.cpu.statFuBusy::SimdShaSigma2                0      0.00%     96.08% # attempts to use FU when none available (Count)
system.cpu.statFuBusy::SimdShaSigma3                0      0.00%     96.08% # attempts to use FU when none available (Count)
system.cpu.statFuBusy::SimdPredAlu                  0      0.00%     96.08% # attempts to use FU when none available (Count)
system.cpu.statFuBusy::MemRead                  24601      2.44%     98.52% # attempts to use FU when none available (Count)
system.cpu.statFuBusy::MemWrite                 14970      1.48%    100.00% # attempts to use FU when none available (Count)
system.cpu.statFuBusy::FloatMemRead                 0      0.00%    100.00% # attempts to use FU when none available (Count)
system.cpu.statFuBusy::FloatMemWrite                0      0.00%    100.00% # attempts to use FU when none available (Count)
system.cpu.statFuBusy::IprAccess                    0      0.00%    100.00% # attempts to use FU when none available (Count)
system.cpu.statFuBusy::InstPrefetch                 0      0.00%    100.00% # attempts to use FU when none available (Count)
system.cpu.statIssuedInstType_0::No_OpClass          406      0.00%      0.00% # Number of instructions issued per FU type, per thread (Count)
system.cpu.statIssuedInstType_0::IntAlu      30699715     58.94%     58.94% # Number of instructions issued per FU type, per thread (Count)
system.cpu.statIssuedInstType_0::IntMult         7602      0.01%     58.95% # Number of instructions issued per FU type, per thread (Count)
system.cpu.statIssuedInstType_0::IntDiv          2688      0.01%     58.96% # Number of instructions issued per FU type, per thread (Count)
system.cpu.statIssuedInstType_0::FloatAdd            0      0.00%     58.96% # Number of instructions issued per FU type, per thread (Count)
system.cpu.statIssuedInstType_0::FloatCmp            0      0.00%     58.96% # Number of instructions issued per FU type, per thread (Count)
system.cpu.statIssuedInstType_0::FloatCvt            0      0.00%     58.96% # Number of instructions issued per FU type, per thread (Count)
system.cpu.statIssuedInstType_0::FloatMult            0      0.00%     58.96% # Number of instructions issued per FU type, per thread (Count)
system.cpu.statIssuedInstType_0::FloatMultAcc            0      0.00%     58.96% # Number of instructions issued per FU type, per thread (Count)
system.cpu.statIssuedInstType_0::FloatDiv            0      0.00%     58.96% # Number of instructions issued per FU type, per thread (Count)
system.cpu.statIssuedInstType_0::FloatMisc            2      0.00%     58.96% # Number of instructions issued per FU type, per thread (Count)
system.cpu.statIssuedInstType_0::FloatSqrt            0      0.00%     58.96% # Number of instructions issued per FU type, per thread (Count)
system.cpu.statIssuedInstType_0::SimdAdd      6339676     12.17%     71.13% # Number of instructions issued per FU type, per thread (Count)
system.cpu.statIssuedInstType_0::SimdAddAcc            0      0.00%     71.13% # Number of instructions issued per FU type, per thread (Count)
system.cpu.statIssuedInstType_0::SimdAlu      7957808     15.28%     86.41% # Number of instructions issued per FU type, per thread (Count)
system.cpu.statIssuedInstType_0::SimdCmp          125      0.00%     86.41% # Number of instructions issued per FU type, per thread (Count)
system.cpu.statIssuedInstType_0::SimdCvt            0      0.00%     86.41% # Number of instructions issued per FU type, per thread (Count)
system.cpu.statIssuedInstType_0::SimdMisc      1573940      3.02%     89.43% # Number of instructions issued per FU type, per thread (Count)
system.cpu.statIssuedInstType_0::SimdMult            0      0.00%     89.43% # Number of instructions issued per FU type, per thread (Count)
system.cpu.statIssuedInstType_0::SimdMultAcc            0      0.00%     89.43% # Number of instructions issued per FU type, per thread (Count)
system.cpu.statIssuedInstType_0::SimdShift            0      0.00%     89.43% # Number of instructions issued per FU type, per thread (Count)
system.cpu.statIssuedInstType_0::SimdShiftAcc            0      0.00%     89.43% # Number of instructions issued per FU type, per thread (Count)
system.cpu.statIssuedInstType_0::SimdDiv            0      0.00%     89.43% # Number of instructions issued per FU type, per thread (Count)
system.cpu.statIssuedInstType_0::SimdSqrt            0      0.00%     89.43% # Number of instructions issued per FU type, per thread (Count)
system.cpu.statIssuedInstType_0::SimdFloatAdd            0      0.00%     89.43% # Number of instructions issued per FU type, per thread (Count)
system.cpu.statIssuedInstType_0::SimdFloatAlu            0      0.00%     89.43% # Number of instructions issued per FU type, per thread (Count)
system.cpu.statIssuedInstType_0::SimdFloatCmp            0      0.00%     89.43% # Number of instructions issued per FU type, per thread (Count)
system.cpu.statIssuedInstType_0::SimdFloatCvt            0      0.00%     89.43% # Number of instructions issued per FU type, per thread (Count)
system.cpu.statIssuedInstType_0::SimdFloatDiv            0      0.00%     89.43% # Number of instructions issued per FU type, per thread (Count)
system.cpu.statIssuedInstType_0::SimdFloatMisc            0      0.00%     89.43% # Number of instructions issued per FU type, per thread (Count)
system.cpu.statIssuedInstType_0::SimdFloatMult            0      0.00%     89.43% # Number of instructions issued per FU type, per thread (Count)
system.cpu.statIssuedInstType_0::SimdFloatMultAcc            0      0.00%     89.43% # Number of instructions issued per FU type, per thread (Count)
system.cpu.statIssuedInstType_0::SimdFloatSqrt            0      0.00%     89.43% # Number of instructions issued per FU type, per thread (Count)
system.cpu.statIssuedInstType_0::SimdReduceAdd            0      0.00%     89.43% # Number of instructions issued per FU type, per thread (Count)
system.cpu.statIssuedInstType_0::SimdReduceAlu            0      0.00%     89.43% # Number of instructions issued per FU type, per thread (Count)
system.cpu.statIssuedInstType_0::SimdReduceCmp            0      0.00%     89.43% # Number of instructions issued per FU type, per thread (Count)
system.cpu.statIssuedInstType_0::SimdFloatReduceAdd            0      0.00%     89.43% # Number of instructions issued per FU type, per thread (Count)
system.cpu.statIssuedInstType_0::SimdFloatReduceCmp            0      0.00%     89.43% # Number of instructions issued per FU type, per thread (Count)
system.cpu.statIssuedInstType_0::SimdAes            0      0.00%     89.43% # Number of instructions issued per FU type, per thread (Count)
system.cpu.statIssuedInstType_0::SimdAesMix            0      0.00%     89.43% # Number of instructions issued per FU type, per thread (Count)
system.cpu.statIssuedInstType_0::SimdSha1Hash            0      0.00%     89.43% # Number of instructions issued per FU type, per thread (Count)
system.cpu.statIssuedInstType_0::SimdSha1Hash2            0      0.00%     89.43% # Number of instructions issued per FU type, per thread (Count)
system.cpu.statIssuedInstType_0::SimdSha256Hash            0      0.00%     89.43% # Number of instructions issued per FU type, per thread (Count)
system.cpu.statIssuedInstType_0::SimdSha256Hash2            0      0.00%     89.43% # Number of instructions issued per FU type, per thread (Count)
system.cpu.statIssuedInstType_0::SimdShaSigma2            0      0.00%     89.43% # Number of instructions issued per FU type, per thread (Count)
system.cpu.statIssuedInstType_0::SimdShaSigma3            0      0.00%     89.43% # Number of instructions issued per FU type, per thread (Count)
system.cpu.statIssuedInstType_0::SimdPredAlu            0      0.00%     89.43% # Number of instructions issued per FU type, per thread (Count)
system.cpu.statIssuedInstType_0::MemRead      3682427      7.07%     96.50% # Number of instructions issued per FU type, per thread (Count)
system.cpu.statIssuedInstType_0::MemWrite      1825006      3.50%    100.00% # Number of instructions issued per FU type, per thread (Count)
system.cpu.statIssuedInstType_0::FloatMemRead            0      0.00%    100.00% # Number of instructions issued per FU type, per thread (Count)
system.cpu.statIssuedInstType_0::FloatMemWrite            0      0.00%    100.00% # Number of instructions issued per FU type, per thread (Count)
system.cpu.statIssuedInstType_0::IprAccess            0      0.00%    100.00% # Number of instructions issued per FU type, per thread (Count)
system.cpu.statIssuedInstType_0::InstPrefetch            0      0.00%    100.00% # Number of instructions issued per FU type, per thread (Count)
system.cpu.statIssuedInstType_0::total       52089395                       # Number of instructions issued per FU type, per thread (Count)
system.cpu.issueRate                         1.242289                       # Inst issue rate ((Count/Cycle))
system.cpu.fuBusy                             1009110                       # FU busy when requested (Count)
system.cpu.fuBusyRate                        0.019373                       # FU busy rate (busy events/executed inst) ((Count/Count))
system.cpu.intInstQueueReads                113875322                       # Number of integer instruction queue reads (Count)
system.cpu.intInstQueueWrites                36005135                       # Number of integer instruction queue writes (Count)
system.cpu.intInstQueueWakeupAccesses        34867300                       # Number of integer instruction queue wakeup accesses (Count)
system.cpu.fpInstQueueReads                         0                       # Number of floating instruction queue reads (Count)
system.cpu.fpInstQueueWrites                        0                       # Number of floating instruction queue writes (Count)
system.cpu.fpInstQueueWakeupAccesses                0                       # Number of floating instruction queue wakeup accesses (Count)
system.cpu.vecInstQueueReads                 33126338                       # Number of vector instruction queue reads (Count)
system.cpu.vecInstQueueWrites                16217733                       # Number of vector instruction queue writes (Count)
system.cpu.vecInstQueueWakeupAccesses        16010081                       # Number of vector instruction queue wakeup accesses (Count)
system.cpu.intAluAccesses                    36127107                       # Number of integer alu accesses (Count)
system.cpu.fpAluAccesses                            0                       # Number of floating point alu accesses (Count)
system.cpu.vecAluAccesses                    16970992                       # Number of vector alu accesses (Count)
system.cpu.numInsts                          52050254                       # Number of executed instructions (Count)
system.cpu.numLoadInsts                       3667566                       # Number of load instructions executed (Count)
system.cpu.numSquashedInsts                     39134                       # Number of squashed instructions skipped in execute (Count)
system.cpu.numSwp                                   0                       # Number of swp insts executed (Count)
system.cpu.numNop                                 357                       # Number of nop insts executed (Count)
system.cpu.numRefs                            5491002                       # Number of memory reference insts executed (Count)
system.cpu.numBranches                        8525311                       # Number of branches executed (Count)
system.cpu.numStoreInsts                      1823436                       # Number of stores executed (Count)
system.cpu.numRate                           1.241355                       # Inst execution rate ((Count/Cycle))
system.cpu.timesIdled                            1327                       # Number of times that the entire CPU went into an idle state and unscheduled itself (Count)
system.cpu.idleCycles                          120561                       # Total number of cycles that the CPU has spent unscheduled due to idling (Cycle)
system.cpu.committedInsts                    50114029                       # Number of Instructions Simulated (Count)
system.cpu.committedOps                      50383651                       # Number of Ops (including micro ops) Simulated (Count)
system.cpu.cpi                               0.836696                       # CPI: Cycles Per Instruction ((Cycle/Count))
system.cpu.totalCpi                          0.836696                       # CPI: Total CPI of All Threads ((Cycle/Count))
system.cpu.ipc                               1.195178                       # IPC: Instructions Per Cycle ((Count/Cycle))
system.cpu.totalIpc                          1.195178                       # IPC: Total IPC of All Threads ((Count/Cycle))
system.cpu.intRegfileReads                   45723621                       # Number of integer regfile reads (Count)
system.cpu.intRegfileWrites                  15881547                       # Number of integer regfile writes (Count)
system.cpu.vecRegfileReads                   41455834                       # number of vector regfile reads (Count)
system.cpu.ccRegfileReads                    30889812                       # number of cc regfile reads (Count)
system.cpu.ccRegfileWrites                   30898965                       # number of cc regfile writes (Count)
system.cpu.miscRegfileReads                  32773644                       # number of misc regfile reads (Count)
system.cpu.miscRegfileWrites                       61                       # number of misc regfile writes (Count)
system.cpu.MemDepUnit__0.insertedLoads        2573197                       # Number of loads inserted to the mem dependence unit. (Count)
system.cpu.MemDepUnit__0.insertedStores       1843293                       # Number of stores inserted to the mem dependence unit. (Count)
system.cpu.MemDepUnit__0.conflictingLoads        43222                       # Number of conflicting loads. (Count)
system.cpu.MemDepUnit__0.conflictingStores        28048                       # Number of conflicting stores. (Count)
system.cpu.MemDepUnit__1.insertedLoads              0                       # Number of loads inserted to the mem dependence unit. (Count)
system.cpu.MemDepUnit__1.insertedStores             0                       # Number of stores inserted to the mem dependence unit. (Count)
system.cpu.MemDepUnit__1.conflictingLoads            0                       # Number of conflicting loads. (Count)
system.cpu.MemDepUnit__1.conflictingStores            0                       # Number of conflicting stores. (Count)
system.cpu.MemDepUnit__2.insertedLoads              0                       # Number of loads inserted to the mem dependence unit. (Count)
system.cpu.MemDepUnit__2.insertedStores             0                       # Number of stores inserted to the mem dependence unit. (Count)
system.cpu.MemDepUnit__2.conflictingLoads            0                       # Number of conflicting loads. (Count)
system.cpu.MemDepUnit__2.conflictingStores            0                       # Number of conflicting stores. (Count)
system.cpu.MemDepUnit__3.insertedLoads              0                       # Number of loads inserted to the mem dependence unit. (Count)
system.cpu.MemDepUnit__3.insertedStores             0                       # Number of stores inserted to the mem dependence unit. (Count)
system.cpu.MemDepUnit__3.conflictingLoads            0                       # Number of conflicting loads. (Count)
system.cpu.MemDepUnit__3.conflictingStores            0                       # Number of conflicting stores. (Count)
system.cpu.branchPred.lookups                 8695287                       # Number of BP lookups (Count)
system.cpu.branchPred.condPredicted           8622282                       # Number of conditional branches predicted (Count)
system.cpu.branchPred.condIncorrect             22655                       # Number of conditional branches incorrect (Count)
system.cpu.branchPred.BTBLookups               518626                       # Number of BTB lookups (Count)
system.cpu.branchPred.BTBUpdates                11517                       # Number of BTB updates (Count)
system.cpu.branchPred.BTBHits                  508703                       # Number of BTB hits (Count)
system.cpu.branchPred.BTBHitRatio            0.980867                       # BTB Hit Ratio (Ratio)
system.cpu.branchPred.RASUsed                   17147                       # Number of times the RAS was used to get a target. (Count)
system.cpu.branchPred.RASIncorrect                 33                       # Number of incorrect RAS predictions. (Count)
system.cpu.branchPred.indirectLookups            6089                       # Number of indirect predictor lookups. (Count)
system.cpu.branchPred.indirectHits               1316                       # Number of indirect target hits. (Count)
system.cpu.branchPred.indirectMisses             4773                       # Number of indirect misses. (Count)
system.cpu.branchPred.indirectMispredicted          577                       # Number of mispredicted indirect branches. (Count)
system.cpu.commit.commitSquashedInsts          872912                       # The number of squashed insts skipped by commit (Count)
system.cpu.commit.commitNonSpecStalls             119                       # The number of times commit has been forced to stall to communicate backwards (Count)
system.cpu.commit.branchMispredicts             22245                       # The number of times a branch was mispredicted (Count)
system.cpu.commit.numCommittedDist::samples     41679239                       # Number of insts commited each cycle (Count)
system.cpu.commit.numCommittedDist::mean     1.208845                       # Number of insts commited each cycle (Count)
system.cpu.commit.numCommittedDist::stdev     2.779825                       # Number of insts commited each cycle (Count)
system.cpu.commit.numCommittedDist::underflows            0      0.00%      0.00% # Number of insts commited each cycle (Count)
system.cpu.commit.numCommittedDist::0        34026167     81.64%     81.64% # Number of insts commited each cycle (Count)
system.cpu.commit.numCommittedDist::1          853872      2.05%     83.69% # Number of insts commited each cycle (Count)
system.cpu.commit.numCommittedDist::2          522294      1.25%     84.94% # Number of insts commited each cycle (Count)
system.cpu.commit.numCommittedDist::3           77218      0.19%     85.13% # Number of insts commited each cycle (Count)
system.cpu.commit.numCommittedDist::4          129855      0.31%     85.44% # Number of insts commited each cycle (Count)
system.cpu.commit.numCommittedDist::5          150921      0.36%     85.80% # Number of insts commited each cycle (Count)
system.cpu.commit.numCommittedDist::6          127719      0.31%     86.11% # Number of insts commited each cycle (Count)
system.cpu.commit.numCommittedDist::7          116241      0.28%     86.38% # Number of insts commited each cycle (Count)
system.cpu.commit.numCommittedDist::8         5674952     13.62%    100.00% # Number of insts commited each cycle (Count)
system.cpu.commit.numCommittedDist::overflows            0      0.00%    100.00% # Number of insts commited each cycle (Count)
system.cpu.commit.numCommittedDist::min_value            0                       # Number of insts commited each cycle (Count)
system.cpu.commit.numCommittedDist::max_value            8                       # Number of insts commited each cycle (Count)
system.cpu.commit.numCommittedDist::total     41679239                       # Number of insts commited each cycle (Count)
system.cpu.commit.instsCommitted             50114134                       # Number of instructions committed (Count)
system.cpu.commit.opsCommitted               50383756                       # Number of ops (including micro ops) committed (Count)
system.cpu.commit.memRefs                     4240544                       # Number of memory references committed (Count)
system.cpu.commit.loads                       2447784                       # Number of loads committed (Count)
system.cpu.commit.amos                             30                       # Number of atomic instructions committed (Count)
system.cpu.commit.membars                          38                       # Number of memory barriers committed (Count)
system.cpu.commit.branches                    8431371                       # Number of branches committed (Count)
system.cpu.commit.vectorInstructions         15967005                       # Number of committed Vector instructions. (Count)
system.cpu.commit.floating                          0                       # Number of committed floating point instructions. (Count)
system.cpu.commit.integer                    29134790                       # Number of committed integer instructions. (Count)
system.cpu.commit.functionCalls                 10803                       # Number of function calls committed. (Count)
system.cpu.commit.committedInstType_0::No_OpClass           54      0.00%      0.00% # Class of committed instruction (Count)
system.cpu.commit.committedInstType_0::IntAlu     30305627     60.15%     60.15% # Class of committed instruction (Count)
system.cpu.commit.committedInstType_0::IntMult         7035      0.01%     60.16% # Class of committed instruction (Count)
system.cpu.commit.committedInstType_0::IntDiv         2554      0.01%     60.17% # Class of committed instruction (Count)
system.cpu.commit.committedInstType_0::FloatAdd            0      0.00%     60.17% # Class of committed instruction (Count)
system.cpu.commit.committedInstType_0::FloatCmp            0      0.00%     60.17% # Class of committed instruction (Count)
system.cpu.commit.committedInstType_0::FloatCvt            0      0.00%     60.17% # Class of committed instruction (Count)
system.cpu.commit.committedInstType_0::FloatMult            0      0.00%     60.17% # Class of committed instruction (Count)
system.cpu.commit.committedInstType_0::FloatMultAcc            0      0.00%     60.17% # Class of committed instruction (Count)
system.cpu.commit.committedInstType_0::FloatDiv            0      0.00%     60.17% # Class of committed instruction (Count)
system.cpu.commit.committedInstType_0::FloatMisc            2      0.00%     60.17% # Class of committed instruction (Count)
system.cpu.commit.committedInstType_0::FloatSqrt            0      0.00%     60.17% # Class of committed instruction (Count)
system.cpu.commit.committedInstType_0::SimdAdd      6322447     12.55%     72.72% # Class of committed instruction (Count)
system.cpu.commit.committedInstType_0::SimdAddAcc            0      0.00%     72.72% # Class of committed instruction (Count)
system.cpu.commit.committedInstType_0::SimdAlu      7935289     15.75%     88.47% # Class of committed instruction (Count)
system.cpu.commit.committedInstType_0::SimdCmp           97      0.00%     88.47% # Class of committed instruction (Count)
system.cpu.commit.committedInstType_0::SimdCvt            0      0.00%     88.47% # Class of committed instruction (Count)
system.cpu.commit.committedInstType_0::SimdMisc      1570107      3.12%     91.58% # Class of committed instruction (Count)
system.cpu.commit.committedInstType_0::SimdMult            0      0.00%     91.58% # Class of committed instruction (Count)
system.cpu.commit.committedInstType_0::SimdMultAcc            0      0.00%     91.58% # Class of committed instruction (Count)
system.cpu.commit.committedInstType_0::SimdShift            0      0.00%     91.58% # Class of committed instruction (Count)
system.cpu.commit.committedInstType_0::SimdShiftAcc            0      0.00%     91.58% # Class of committed instruction (Count)
system.cpu.commit.committedInstType_0::SimdDiv            0      0.00%     91.58% # Class of committed instruction (Count)
system.cpu.commit.committedInstType_0::SimdSqrt            0      0.00%     91.58% # Class of committed instruction (Count)
system.cpu.commit.committedInstType_0::SimdFloatAdd            0      0.00%     91.58% # Class of committed instruction (Count)
system.cpu.commit.committedInstType_0::SimdFloatAlu            0      0.00%     91.58% # Class of committed instruction (Count)
system.cpu.commit.committedInstType_0::SimdFloatCmp            0      0.00%     91.58% # Class of committed instruction (Count)
system.cpu.commit.committedInstType_0::SimdFloatCvt            0      0.00%     91.58% # Class of committed instruction (Count)
system.cpu.commit.committedInstType_0::SimdFloatDiv            0      0.00%     91.58% # Class of committed instruction (Count)
system.cpu.commit.committedInstType_0::SimdFloatMisc            0      0.00%     91.58% # Class of committed instruction (Count)
system.cpu.commit.committedInstType_0::SimdFloatMult            0      0.00%     91.58% # Class of committed instruction (Count)
system.cpu.commit.committedInstType_0::SimdFloatMultAcc            0      0.00%     91.58% # Class of committed instruction (Count)
system.cpu.commit.committedInstType_0::SimdFloatSqrt            0      0.00%     91.58% # Class of committed instruction (Count)
system.cpu.commit.committedInstType_0::SimdReduceAdd            0      0.00%     91.58% # Class of committed instruction (Count)
system.cpu.commit.committedInstType_0::SimdReduceAlu            0      0.00%     91.58% # Class of committed instruction (Count)
system.cpu.commit.committedInstType_0::SimdReduceCmp            0      0.00%     91.58% # Class of committed instruction (Count)
system.cpu.commit.committedInstType_0::SimdFloatReduceAdd            0      0.00%     91.58% # Class of committed instruction (Count)
system.cpu.commit.committedInstType_0::SimdFloatReduceCmp            0      0.00%     91.58% # Class of committed instruction (Count)
system.cpu.commit.committedInstType_0::SimdAes            0      0.00%     91.58% # Class of committed instruction (Count)
system.cpu.commit.committedInstType_0::SimdAesMix            0      0.00%     91.58% # Class of committed instruction (Count)
system.cpu.commit.committedInstType_0::SimdSha1Hash            0      0.00%     91.58% # Class of committed instruction (Count)
system.cpu.commit.committedInstType_0::SimdSha1Hash2            0      0.00%     91.58% # Class of committed instruction (Count)
system.cpu.commit.committedInstType_0::SimdSha256Hash            0      0.00%     91.58% # Class of committed instruction (Count)
system.cpu.commit.committedInstType_0::SimdSha256Hash2            0      0.00%     91.58% # Class of committed instruction (Count)
system.cpu.commit.committedInstType_0::SimdShaSigma2            0      0.00%     91.58% # Class of committed instruction (Count)
system.cpu.commit.committedInstType_0::SimdShaSigma3            0      0.00%     91.58% # Class of committed instruction (Count)
system.cpu.commit.committedInstType_0::SimdPredAlu            0      0.00%     91.58% # Class of committed instruction (Count)
system.cpu.commit.committedInstType_0::MemRead      2447784      4.86%     96.44% # Class of committed instruction (Count)
system.cpu.commit.committedInstType_0::MemWrite      1792760      3.56%    100.00% # Class of committed instruction (Count)
system.cpu.commit.committedInstType_0::FloatMemRead            0      0.00%    100.00% # Class of committed instruction (Count)
system.cpu.commit.committedInstType_0::FloatMemWrite            0      0.00%    100.00% # Class of committed instruction (Count)
system.cpu.commit.committedInstType_0::IprAccess            0      0.00%    100.00% # Class of committed instruction (Count)
system.cpu.commit.committedInstType_0::InstPrefetch            0      0.00%    100.00% # Class of committed instruction (Count)
system.cpu.commit.committedInstType_0::total     50383756                       # Class of committed instruction (Count)
system.cpu.commit.commitEligibleSamples       5674952                       # number cycles where commit BW limit reached (Cycle)
system.cpu.dcache.demandHits::cpu.data        2535858                       # number of demand (read+write) hits (Count)
system.cpu.dcache.demandHits::total           2535858                       # number of demand (read+write) hits (Count)
system.cpu.dcache.overallHits::cpu.data       2535858                       # number of overall hits (Count)
system.cpu.dcache.overallHits::total          2535858                       # number of overall hits (Count)
system.cpu.dcache.demandMisses::cpu.data      1737186                       # number of demand (read+write) misses (Count)
system.cpu.dcache.demandMisses::total         1737186                       # number of demand (read+write) misses (Count)
system.cpu.dcache.overallMisses::cpu.data      1737186                       # number of overall misses (Count)
system.cpu.dcache.overallMisses::total        1737186                       # number of overall misses (Count)
system.cpu.dcache.demandMissLatency::cpu.data  58987886993                       # number of demand (read+write) miss ticks (Tick)
system.cpu.dcache.demandMissLatency::total  58987886993                       # number of demand (read+write) miss ticks (Tick)
system.cpu.dcache.overallMissLatency::cpu.data  58987886993                       # number of overall miss ticks (Tick)
system.cpu.dcache.overallMissLatency::total  58987886993                       # number of overall miss ticks (Tick)
system.cpu.dcache.demandAccesses::cpu.data      4273044                       # number of demand (read+write) accesses (Count)
system.cpu.dcache.demandAccesses::total       4273044                       # number of demand (read+write) accesses (Count)
system.cpu.dcache.overallAccesses::cpu.data      4273044                       # number of overall (read+write) accesses (Count)
system.cpu.dcache.overallAccesses::total      4273044                       # number of overall (read+write) accesses (Count)
system.cpu.dcache.demandMissRate::cpu.data     0.406545                       # miss rate for demand accesses (Ratio)
system.cpu.dcache.demandMissRate::total      0.406545                       # miss rate for demand accesses (Ratio)
system.cpu.dcache.overallMissRate::cpu.data     0.406545                       # miss rate for overall accesses (Ratio)
system.cpu.dcache.overallMissRate::total     0.406545                       # miss rate for overall accesses (Ratio)
system.cpu.dcache.demandAvgMissLatency::cpu.data 33955.999526                       # average overall miss latency in ticks ((Tick/Count))
system.cpu.dcache.demandAvgMissLatency::total 33955.999526                       # average overall miss latency in ticks ((Tick/Count))
system.cpu.dcache.overallAvgMissLatency::cpu.data 33955.999526                       # average overall miss latency ((Tick/Count))
system.cpu.dcache.overallAvgMissLatency::total 33955.999526                       # average overall miss latency ((Tick/Count))
system.cpu.dcache.blockedCycles::no_mshrs      9861937                       # number of cycles access was blocked (Cycle)
system.cpu.dcache.blockedCycles::no_targets         1205                       # number of cycles access was blocked (Cycle)
system.cpu.dcache.blockedCauses::no_mshrs      1070860                       # number of times access was blocked (Count)
system.cpu.dcache.blockedCauses::no_targets            8                       # number of times access was blocked (Count)
system.cpu.dcache.avgBlocked::no_mshrs       9.209362                       # average number of cycles each access was blocked ((Cycle/Count))
system.cpu.dcache.avgBlocked::no_targets   150.625000                       # average number of cycles each access was blocked ((Cycle/Count))
system.cpu.dcache.writebacks::writebacks      1564720                       # number of writebacks (Count)
system.cpu.dcache.writebacks::total           1564720                       # number of writebacks (Count)
system.cpu.dcache.demandMshrHits::cpu.data        53164                       # number of demand (read+write) MSHR hits (Count)
system.cpu.dcache.demandMshrHits::total         53164                       # number of demand (read+write) MSHR hits (Count)
system.cpu.dcache.overallMshrHits::cpu.data        53164                       # number of overall MSHR hits (Count)
system.cpu.dcache.overallMshrHits::total        53164                       # number of overall MSHR hits (Count)
system.cpu.dcache.demandMshrMisses::cpu.data      1684022                       # number of demand (read+write) MSHR misses (Count)
system.cpu.dcache.demandMshrMisses::total      1684022                       # number of demand (read+write) MSHR misses (Count)
system.cpu.dcache.overallMshrMisses::cpu.data      1684022                       # number of overall MSHR misses (Count)
system.cpu.dcache.overallMshrMisses::total      1684022                       # number of overall MSHR misses (Count)
system.cpu.dcache.demandMshrMissLatency::cpu.data  53860684696                       # number of demand (read+write) MSHR miss ticks (Tick)
system.cpu.dcache.demandMshrMissLatency::total  53860684696                       # number of demand (read+write) MSHR miss ticks (Tick)
system.cpu.dcache.overallMshrMissLatency::cpu.data  53860684696                       # number of overall MSHR miss ticks (Tick)
system.cpu.dcache.overallMshrMissLatency::total  53860684696                       # number of overall MSHR miss ticks (Tick)
system.cpu.dcache.demandMshrMissRate::cpu.data     0.394104                       # mshr miss ratio for demand accesses (Ratio)
system.cpu.dcache.demandMshrMissRate::total     0.394104                       # mshr miss ratio for demand accesses (Ratio)
system.cpu.dcache.overallMshrMissRate::cpu.data     0.394104                       # mshr miss ratio for overall accesses (Ratio)
system.cpu.dcache.overallMshrMissRate::total     0.394104                       # mshr miss ratio for overall accesses (Ratio)
system.cpu.dcache.demandAvgMshrMissLatency::cpu.data 31983.361676                       # average overall mshr miss latency ((Tick/Count))
system.cpu.dcache.demandAvgMshrMissLatency::total 31983.361676                       # average overall mshr miss latency ((Tick/Count))
system.cpu.dcache.overallAvgMshrMissLatency::cpu.data 31983.361676                       # average overall mshr miss latency ((Tick/Count))
system.cpu.dcache.overallAvgMshrMissLatency::total 31983.361676                       # average overall mshr miss latency ((Tick/Count))
system.cpu.dcache.replacements                1682997                       # number of replacements (Count)
system.cpu.dcache.ReadReq.hits::cpu.data       748771                       # number of ReadReq hits (Count)
system.cpu.dcache.ReadReq.hits::total          748771                       # number of ReadReq hits (Count)
system.cpu.dcache.ReadReq.misses::cpu.data      1731529                       # number of ReadReq misses (Count)
system.cpu.dcache.ReadReq.misses::total       1731529                       # number of ReadReq misses (Count)
system.cpu.dcache.ReadReq.missLatency::cpu.data  58651527000                       # number of ReadReq miss ticks (Tick)
system.cpu.dcache.ReadReq.missLatency::total  58651527000                       # number of ReadReq miss ticks (Tick)
system.cpu.dcache.ReadReq.accesses::cpu.data      2480300                       # number of ReadReq accesses(hits+misses) (Count)
system.cpu.dcache.ReadReq.accesses::total      2480300                       # number of ReadReq accesses(hits+misses) (Count)
system.cpu.dcache.ReadReq.missRate::cpu.data     0.698113                       # miss rate for ReadReq accesses (Ratio)
system.cpu.dcache.ReadReq.missRate::total     0.698113                       # miss rate for ReadReq accesses (Ratio)
system.cpu.dcache.ReadReq.avgMissLatency::cpu.data 33872.679580                       # average ReadReq miss latency ((Tick/Count))
system.cpu.dcache.ReadReq.avgMissLatency::total 33872.679580                       # average ReadReq miss latency ((Tick/Count))
system.cpu.dcache.ReadReq.mshrHits::cpu.data        49751                       # number of ReadReq MSHR hits (Count)
system.cpu.dcache.ReadReq.mshrHits::total        49751                       # number of ReadReq MSHR hits (Count)
system.cpu.dcache.ReadReq.mshrMisses::cpu.data      1681778                       # number of ReadReq MSHR misses (Count)
system.cpu.dcache.ReadReq.mshrMisses::total      1681778                       # number of ReadReq MSHR misses (Count)
system.cpu.dcache.ReadReq.mshrMissLatency::cpu.data  53729465500                       # number of ReadReq MSHR miss ticks (Tick)
system.cpu.dcache.ReadReq.mshrMissLatency::total  53729465500                       # number of ReadReq MSHR miss ticks (Tick)
system.cpu.dcache.ReadReq.mshrMissRate::cpu.data     0.678054                       # mshr miss rate for ReadReq accesses (Ratio)
system.cpu.dcache.ReadReq.mshrMissRate::total     0.678054                       # mshr miss rate for ReadReq accesses (Ratio)
system.cpu.dcache.ReadReq.avgMshrMissLatency::cpu.data 31948.013055                       # average ReadReq mshr miss latency ((Tick/Count))
system.cpu.dcache.ReadReq.avgMshrMissLatency::total 31948.013055                       # average ReadReq mshr miss latency ((Tick/Count))
system.cpu.dcache.SwapReq.hits::cpu.data           27                       # number of SwapReq hits (Count)
system.cpu.dcache.SwapReq.hits::total              27                       # number of SwapReq hits (Count)
system.cpu.dcache.SwapReq.misses::cpu.data            3                       # number of SwapReq misses (Count)
system.cpu.dcache.SwapReq.misses::total             3                       # number of SwapReq misses (Count)
system.cpu.dcache.SwapReq.missLatency::cpu.data        98000                       # number of SwapReq miss ticks (Tick)
system.cpu.dcache.SwapReq.missLatency::total        98000                       # number of SwapReq miss ticks (Tick)
system.cpu.dcache.SwapReq.accesses::cpu.data           30                       # number of SwapReq accesses(hits+misses) (Count)
system.cpu.dcache.SwapReq.accesses::total           30                       # number of SwapReq accesses(hits+misses) (Count)
system.cpu.dcache.SwapReq.missRate::cpu.data     0.100000                       # miss rate for SwapReq accesses (Ratio)
system.cpu.dcache.SwapReq.missRate::total     0.100000                       # miss rate for SwapReq accesses (Ratio)
system.cpu.dcache.SwapReq.avgMissLatency::cpu.data 32666.666667                       # average SwapReq miss latency ((Tick/Count))
system.cpu.dcache.SwapReq.avgMissLatency::total 32666.666667                       # average SwapReq miss latency ((Tick/Count))
system.cpu.dcache.SwapReq.mshrMisses::cpu.data            3                       # number of SwapReq MSHR misses (Count)
system.cpu.dcache.SwapReq.mshrMisses::total            3                       # number of SwapReq MSHR misses (Count)
system.cpu.dcache.SwapReq.mshrMissLatency::cpu.data        95000                       # number of SwapReq MSHR miss ticks (Tick)
system.cpu.dcache.SwapReq.mshrMissLatency::total        95000                       # number of SwapReq MSHR miss ticks (Tick)
system.cpu.dcache.SwapReq.mshrMissRate::cpu.data     0.100000                       # mshr miss rate for SwapReq accesses (Ratio)
system.cpu.dcache.SwapReq.mshrMissRate::total     0.100000                       # mshr miss rate for SwapReq accesses (Ratio)
system.cpu.dcache.SwapReq.avgMshrMissLatency::cpu.data 31666.666667                       # average SwapReq mshr miss latency ((Tick/Count))
system.cpu.dcache.SwapReq.avgMshrMissLatency::total 31666.666667                       # average SwapReq mshr miss latency ((Tick/Count))
system.cpu.dcache.WriteLineReq.misses::cpu.data          131                       # number of WriteLineReq misses (Count)
system.cpu.dcache.WriteLineReq.misses::total          131                       # number of WriteLineReq misses (Count)
system.cpu.dcache.WriteLineReq.missLatency::cpu.data      4172908                       # number of WriteLineReq miss ticks (Tick)
system.cpu.dcache.WriteLineReq.missLatency::total      4172908                       # number of WriteLineReq miss ticks (Tick)
system.cpu.dcache.WriteLineReq.accesses::cpu.data          131                       # number of WriteLineReq accesses(hits+misses) (Count)
system.cpu.dcache.WriteLineReq.accesses::total          131                       # number of WriteLineReq accesses(hits+misses) (Count)
system.cpu.dcache.WriteLineReq.missRate::cpu.data            1                       # miss rate for WriteLineReq accesses (Ratio)
system.cpu.dcache.WriteLineReq.missRate::total            1                       # miss rate for WriteLineReq accesses (Ratio)
system.cpu.dcache.WriteLineReq.avgMissLatency::cpu.data 31854.259542                       # average WriteLineReq miss latency ((Tick/Count))
system.cpu.dcache.WriteLineReq.avgMissLatency::total 31854.259542                       # average WriteLineReq miss latency ((Tick/Count))
system.cpu.dcache.WriteLineReq.mshrMisses::cpu.data          131                       # number of WriteLineReq MSHR misses (Count)
system.cpu.dcache.WriteLineReq.mshrMisses::total          131                       # number of WriteLineReq MSHR misses (Count)
system.cpu.dcache.WriteLineReq.mshrMissLatency::cpu.data      4041908                       # number of WriteLineReq MSHR miss ticks (Tick)
system.cpu.dcache.WriteLineReq.mshrMissLatency::total      4041908                       # number of WriteLineReq MSHR miss ticks (Tick)
system.cpu.dcache.WriteLineReq.mshrMissRate::cpu.data            1                       # mshr miss rate for WriteLineReq accesses (Ratio)
system.cpu.dcache.WriteLineReq.mshrMissRate::total            1                       # mshr miss rate for WriteLineReq accesses (Ratio)
system.cpu.dcache.WriteLineReq.avgMshrMissLatency::cpu.data 30854.259542                       # average WriteLineReq mshr miss latency ((Tick/Count))
system.cpu.dcache.WriteLineReq.avgMshrMissLatency::total 30854.259542                       # average WriteLineReq mshr miss latency ((Tick/Count))
system.cpu.dcache.WriteReq.hits::cpu.data      1787087                       # number of WriteReq hits (Count)
system.cpu.dcache.WriteReq.hits::total        1787087                       # number of WriteReq hits (Count)
system.cpu.dcache.WriteReq.misses::cpu.data         5526                       # number of WriteReq misses (Count)
system.cpu.dcache.WriteReq.misses::total         5526                       # number of WriteReq misses (Count)
system.cpu.dcache.WriteReq.missLatency::cpu.data    332187085                       # number of WriteReq miss ticks (Tick)
system.cpu.dcache.WriteReq.missLatency::total    332187085                       # number of WriteReq miss ticks (Tick)
system.cpu.dcache.WriteReq.accesses::cpu.data      1792613                       # number of WriteReq accesses(hits+misses) (Count)
system.cpu.dcache.WriteReq.accesses::total      1792613                       # number of WriteReq accesses(hits+misses) (Count)
system.cpu.dcache.WriteReq.missRate::cpu.data     0.003083                       # miss rate for WriteReq accesses (Ratio)
system.cpu.dcache.WriteReq.missRate::total     0.003083                       # miss rate for WriteReq accesses (Ratio)
system.cpu.dcache.WriteReq.avgMissLatency::cpu.data 60113.479008                       # average WriteReq miss latency ((Tick/Count))
system.cpu.dcache.WriteReq.avgMissLatency::total 60113.479008                       # average WriteReq miss latency ((Tick/Count))
system.cpu.dcache.WriteReq.mshrHits::cpu.data         3413                       # number of WriteReq MSHR hits (Count)
system.cpu.dcache.WriteReq.mshrHits::total         3413                       # number of WriteReq MSHR hits (Count)
system.cpu.dcache.WriteReq.mshrMisses::cpu.data         2113                       # number of WriteReq MSHR misses (Count)
system.cpu.dcache.WriteReq.mshrMisses::total         2113                       # number of WriteReq MSHR misses (Count)
system.cpu.dcache.WriteReq.mshrMissLatency::cpu.data    127177288                       # number of WriteReq MSHR miss ticks (Tick)
system.cpu.dcache.WriteReq.mshrMissLatency::total    127177288                       # number of WriteReq MSHR miss ticks (Tick)
system.cpu.dcache.WriteReq.mshrMissRate::cpu.data     0.001179                       # mshr miss rate for WriteReq accesses (Ratio)
system.cpu.dcache.WriteReq.mshrMissRate::total     0.001179                       # mshr miss rate for WriteReq accesses (Ratio)
system.cpu.dcache.WriteReq.avgMshrMissLatency::cpu.data 60188.020823                       # average WriteReq mshr miss latency ((Tick/Count))
system.cpu.dcache.WriteReq.avgMshrMissLatency::total 60188.020823                       # average WriteReq mshr miss latency ((Tick/Count))
system.cpu.dcache.power_state.pwrStateResidencyTicks::UNDEFINED  20965095000                       # Cumulative time (in ticks) in various power states (Tick)
system.cpu.dcache.tags.tagsInUse          1022.241726                       # Average ticks per tags in use ((Tick/Count))
system.cpu.dcache.tags.totalRefs              3940288                       # Total number of references to valid blocks. (Count)
system.cpu.dcache.tags.sampledRefs            1682997                       # Sample count of references to valid blocks. (Count)
system.cpu.dcache.tags.avgRefs               2.341233                       # Average number of references to valid blocks. ((Count/Count))
system.cpu.dcache.tags.warmupTick              253500                       # The tick when the warmup percentage was hit. (Tick)
system.cpu.dcache.tags.occupancies::cpu.data  1022.241726                       # Average occupied blocks per tick, per requestor ((Count/Tick))
system.cpu.dcache.tags.avgOccs::cpu.data     0.998283                       # Average percentage of cache occupancy ((Ratio/Tick))
system.cpu.dcache.tags.avgOccs::total        0.998283                       # Average percentage of cache occupancy ((Ratio/Tick))
system.cpu.dcache.tags.occupanciesTaskId::1024         1024                       # Occupied blocks per task id (Count)
system.cpu.dcache.tags.ageTaskId_1024::0          294                       # Occupied blocks per task id, per block age (Count)
system.cpu.dcache.tags.ageTaskId_1024::1          338                       # Occupied blocks per task id, per block age (Count)
system.cpu.dcache.tags.ageTaskId_1024::2          391                       # Occupied blocks per task id, per block age (Count)
system.cpu.dcache.tags.ageTaskId_1024::4            1                       # Occupied blocks per task id, per block age (Count)
system.cpu.dcache.tags.ratioOccsTaskId::1024            1                       # Ratio of occupied blocks and all blocks, per task id (Ratio)
system.cpu.dcache.tags.tagAccesses           18776317                       # Number of tag accesses (Count)
system.cpu.dcache.tags.dataAccesses          18776317                       # Number of data accesses (Count)
system.cpu.dcache.tags.power_state.pwrStateResidencyTicks::UNDEFINED  20965095000                       # Cumulative time (in ticks) in various power states (Tick)
system.cpu.decode.idleCycles                  1707860                       # Number of cycles decode is idle (Cycle)
system.cpu.decode.blockedCycles              33387717                       # Number of cycles decode is blocked (Cycle)
system.cpu.decode.runCycles                   5778102                       # Number of cycles decode is running (Cycle)
system.cpu.decode.unblockCycles                912280                       # Number of cycles decode is unblocking (Cycle)
system.cpu.decode.squashCycles                  23671                       # Number of cycles decode is squashing (Cycle)
system.cpu.decode.branchResolved               485473                       # Number of times decode resolved a branch (Count)
system.cpu.decode.branchMispred                   750                       # Number of times decode detected a branch misprediction (Count)
system.cpu.decode.decodedInsts               51586698                       # Number of instructions handled by decode (Count)
system.cpu.decode.squashedInsts                  2529                       # Number of squashed instructions handled by decode (Count)
system.cpu.fetch.icacheStallCycles            3623967                       # Number of cycles fetch is stalled on an Icache miss (Cycle)
system.cpu.fetch.insts                       51485115                       # Number of instructions fetch has processed (Count)
system.cpu.fetch.branches                     8695287                       # Number of branches that fetch encountered (Count)
system.cpu.fetch.predictedBranches             527166                       # Number of branches that fetch has predicted taken (Count)
system.cpu.fetch.cycles                      38158609                       # Number of cycles fetch has run and was not squashing or blocked (Cycle)
system.cpu.fetch.squashCycles                   48794                       # Number of cycles fetch has spent squashing (Cycle)
system.cpu.fetch.miscStallCycles                  344                       # Number of cycles fetch has spent waiting on interrupts, or bad addresses, or out of MSHRs (Cycle)
system.cpu.fetch.pendingTrapStallCycles          2287                       # Number of stall cycles due to pending traps (Cycle)
system.cpu.fetch.icacheWaitRetryStallCycles           26                       # Number of stall cycles due to full MSHR (Cycle)
system.cpu.fetch.cacheLines                   3573099                       # Number of cache lines fetched (Count)
system.cpu.fetch.icacheSquashes                  5604                       # Number of outstanding Icache misses that were squashed (Count)
system.cpu.fetch.nisnDist::samples           41809630                       # Number of instructions fetched each cycle (Total) (Count)
system.cpu.fetch.nisnDist::mean              1.240408                       # Number of instructions fetched each cycle (Total) (Count)
system.cpu.fetch.nisnDist::stdev             2.853046                       # Number of instructions fetched each cycle (Total) (Count)
system.cpu.fetch.nisnDist::underflows               0      0.00%      0.00% # Number of instructions fetched each cycle (Total) (Count)
system.cpu.fetch.nisnDist::0                 34943642     83.58%     83.58% # Number of instructions fetched each cycle (Total) (Count)
system.cpu.fetch.nisnDist::1                    93824      0.22%     83.80% # Number of instructions fetched each cycle (Total) (Count)
system.cpu.fetch.nisnDist::2                    58933      0.14%     83.94% # Number of instructions fetched each cycle (Total) (Count)
system.cpu.fetch.nisnDist::3                   108516      0.26%     84.20% # Number of instructions fetched each cycle (Total) (Count)
system.cpu.fetch.nisnDist::4                   196391      0.47%     84.67% # Number of instructions fetched each cycle (Total) (Count)
system.cpu.fetch.nisnDist::5                   149163      0.36%     85.03% # Number of instructions fetched each cycle (Total) (Count)
system.cpu.fetch.nisnDist::6                    51782      0.12%     85.15% # Number of instructions fetched each cycle (Total) (Count)
system.cpu.fetch.nisnDist::7                   177350      0.42%     85.58% # Number of instructions fetched each cycle (Total) (Count)
system.cpu.fetch.nisnDist::8                  6030029     14.42%    100.00% # Number of instructions fetched each cycle (Total) (Count)
system.cpu.fetch.nisnDist::overflows                0      0.00%    100.00% # Number of instructions fetched each cycle (Total) (Count)
system.cpu.fetch.nisnDist::min_value                0                       # Number of instructions fetched each cycle (Total) (Count)
system.cpu.fetch.nisnDist::max_value                8                       # Number of instructions fetched each cycle (Total) (Count)
system.cpu.fetch.nisnDist::total             41809630                       # Number of instructions fetched each cycle (Total) (Count)
system.cpu.fetch.branchRate                  0.207375                       # Number of branch fetches per cycle (Ratio)
system.cpu.fetch.rate                        1.227877                       # Number of inst fetches per cycle ((Count/Cycle))
system.cpu.icache.demandHits::cpu.inst        3570745                       # number of demand (read+write) hits (Count)
system.cpu.icache.demandHits::total           3570745                       # number of demand (read+write) hits (Count)
system.cpu.icache.overallHits::cpu.inst       3570745                       # number of overall hits (Count)
system.cpu.icache.overallHits::total          3570745                       # number of overall hits (Count)
system.cpu.icache.demandMisses::cpu.inst         2354                       # number of demand (read+write) misses (Count)
system.cpu.icache.demandMisses::total            2354                       # number of demand (read+write) misses (Count)
system.cpu.icache.overallMisses::cpu.inst         2354                       # number of overall misses (Count)
system.cpu.icache.overallMisses::total           2354                       # number of overall misses (Count)
system.cpu.icache.demandMissLatency::cpu.inst    153213499                       # number of demand (read+write) miss ticks (Tick)
system.cpu.icache.demandMissLatency::total    153213499                       # number of demand (read+write) miss ticks (Tick)
system.cpu.icache.overallMissLatency::cpu.inst    153213499                       # number of overall miss ticks (Tick)
system.cpu.icache.overallMissLatency::total    153213499                       # number of overall miss ticks (Tick)
system.cpu.icache.demandAccesses::cpu.inst      3573099                       # number of demand (read+write) accesses (Count)
system.cpu.icache.demandAccesses::total       3573099                       # number of demand (read+write) accesses (Count)
system.cpu.icache.overallAccesses::cpu.inst      3573099                       # number of overall (read+write) accesses (Count)
system.cpu.icache.overallAccesses::total      3573099                       # number of overall (read+write) accesses (Count)
system.cpu.icache.demandMissRate::cpu.inst     0.000659                       # miss rate for demand accesses (Ratio)
system.cpu.icache.demandMissRate::total      0.000659                       # miss rate for demand accesses (Ratio)
system.cpu.icache.overallMissRate::cpu.inst     0.000659                       # miss rate for overall accesses (Ratio)
system.cpu.icache.overallMissRate::total     0.000659                       # miss rate for overall accesses (Ratio)
system.cpu.icache.demandAvgMissLatency::cpu.inst 65086.448173                       # average overall miss latency in ticks ((Tick/Count))
system.cpu.icache.demandAvgMissLatency::total 65086.448173                       # average overall miss latency in ticks ((Tick/Count))
system.cpu.icache.overallAvgMissLatency::cpu.inst 65086.448173                       # average overall miss latency ((Tick/Count))
system.cpu.icache.overallAvgMissLatency::total 65086.448173                       # average overall miss latency ((Tick/Count))
system.cpu.icache.blockedCycles::no_mshrs          491                       # number of cycles access was blocked (Cycle)
system.cpu.icache.blockedCycles::no_targets            0                       # number of cycles access was blocked (Cycle)
system.cpu.icache.blockedCauses::no_mshrs           10                       # number of times access was blocked (Count)
system.cpu.icache.blockedCauses::no_targets            0                       # number of times access was blocked (Count)
system.cpu.icache.avgBlocked::no_mshrs      49.100000                       # average number of cycles each access was blocked ((Cycle/Count))
system.cpu.icache.avgBlocked::no_targets          nan                       # average number of cycles each access was blocked ((Cycle/Count))
system.cpu.icache.writebacks::writebacks         1591                       # number of writebacks (Count)
system.cpu.icache.writebacks::total              1591                       # number of writebacks (Count)
system.cpu.icache.demandMshrHits::cpu.inst          507                       # number of demand (read+write) MSHR hits (Count)
system.cpu.icache.demandMshrHits::total           507                       # number of demand (read+write) MSHR hits (Count)
system.cpu.icache.overallMshrHits::cpu.inst          507                       # number of overall MSHR hits (Count)
system.cpu.icache.overallMshrHits::total          507                       # number of overall MSHR hits (Count)
system.cpu.icache.demandMshrMisses::cpu.inst         1847                       # number of demand (read+write) MSHR misses (Count)
system.cpu.icache.demandMshrMisses::total         1847                       # number of demand (read+write) MSHR misses (Count)
system.cpu.icache.overallMshrMisses::cpu.inst         1847                       # number of overall MSHR misses (Count)
system.cpu.icache.overallMshrMisses::total         1847                       # number of overall MSHR misses (Count)
system.cpu.icache.demandMshrMissLatency::cpu.inst    121926500                       # number of demand (read+write) MSHR miss ticks (Tick)
system.cpu.icache.demandMshrMissLatency::total    121926500                       # number of demand (read+write) MSHR miss ticks (Tick)
system.cpu.icache.overallMshrMissLatency::cpu.inst    121926500                       # number of overall MSHR miss ticks (Tick)
system.cpu.icache.overallMshrMissLatency::total    121926500                       # number of overall MSHR miss ticks (Tick)
system.cpu.icache.demandMshrMissRate::cpu.inst     0.000517                       # mshr miss ratio for demand accesses (Ratio)
system.cpu.icache.demandMshrMissRate::total     0.000517                       # mshr miss ratio for demand accesses (Ratio)
system.cpu.icache.overallMshrMissRate::cpu.inst     0.000517                       # mshr miss ratio for overall accesses (Ratio)
system.cpu.icache.overallMshrMissRate::total     0.000517                       # mshr miss ratio for overall accesses (Ratio)
system.cpu.icache.demandAvgMshrMissLatency::cpu.inst 66013.264754                       # average overall mshr miss latency ((Tick/Count))
system.cpu.icache.demandAvgMshrMissLatency::total 66013.264754                       # average overall mshr miss latency ((Tick/Count))
system.cpu.icache.overallAvgMshrMissLatency::cpu.inst 66013.264754                       # average overall mshr miss latency ((Tick/Count))
system.cpu.icache.overallAvgMshrMissLatency::total 66013.264754                       # average overall mshr miss latency ((Tick/Count))
system.cpu.icache.replacements                   1591                       # number of replacements (Count)
system.cpu.icache.ReadReq.hits::cpu.inst      3570745                       # number of ReadReq hits (Count)
system.cpu.icache.ReadReq.hits::total         3570745                       # number of ReadReq hits (Count)
system.cpu.icache.ReadReq.misses::cpu.inst         2354                       # number of ReadReq misses (Count)
system.cpu.icache.ReadReq.misses::total          2354                       # number of ReadReq misses (Count)
system.cpu.icache.ReadReq.missLatency::cpu.inst    153213499                       # number of ReadReq miss ticks (Tick)
system.cpu.icache.ReadReq.missLatency::total    153213499                       # number of ReadReq miss ticks (Tick)
system.cpu.icache.ReadReq.accesses::cpu.inst      3573099                       # number of ReadReq accesses(hits+misses) (Count)
system.cpu.icache.ReadReq.accesses::total      3573099                       # number of ReadReq accesses(hits+misses) (Count)
system.cpu.icache.ReadReq.missRate::cpu.inst     0.000659                       # miss rate for ReadReq accesses (Ratio)
system.cpu.icache.ReadReq.missRate::total     0.000659                       # miss rate for ReadReq accesses (Ratio)
system.cpu.icache.ReadReq.avgMissLatency::cpu.inst 65086.448173                       # average ReadReq miss latency ((Tick/Count))
system.cpu.icache.ReadReq.avgMissLatency::total 65086.448173                       # average ReadReq miss latency ((Tick/Count))
system.cpu.icache.ReadReq.mshrHits::cpu.inst          507                       # number of ReadReq MSHR hits (Count)
system.cpu.icache.ReadReq.mshrHits::total          507                       # number of ReadReq MSHR hits (Count)
system.cpu.icache.ReadReq.mshrMisses::cpu.inst         1847                       # number of ReadReq MSHR misses (Count)
system.cpu.icache.ReadReq.mshrMisses::total         1847                       # number of ReadReq MSHR misses (Count)
system.cpu.icache.ReadReq.mshrMissLatency::cpu.inst    121926500                       # number of ReadReq MSHR miss ticks (Tick)
system.cpu.icache.ReadReq.mshrMissLatency::total    121926500                       # number of ReadReq MSHR miss ticks (Tick)
system.cpu.icache.ReadReq.mshrMissRate::cpu.inst     0.000517                       # mshr miss rate for ReadReq accesses (Ratio)
system.cpu.icache.ReadReq.mshrMissRate::total     0.000517                       # mshr miss rate for ReadReq accesses (Ratio)
system.cpu.icache.ReadReq.avgMshrMissLatency::cpu.inst 66013.264754                       # average ReadReq mshr miss latency ((Tick/Count))
system.cpu.icache.ReadReq.avgMshrMissLatency::total 66013.264754                       # average ReadReq mshr miss latency ((Tick/Count))
system.cpu.icache.power_state.pwrStateResidencyTicks::UNDEFINED  20965095000                       # Cumulative time (in ticks) in various power states (Tick)
system.cpu.icache.tags.tagsInUse           255.813367                       # Average ticks per tags in use ((Tick/Count))
system.cpu.icache.tags.totalRefs               183855                       # Total number of references to valid blocks. (Count)
system.cpu.icache.tags.sampledRefs               1591                       # Sample count of references to valid blocks. (Count)
system.cpu.icache.tags.avgRefs             115.559397                       # Average number of references to valid blocks. ((Count/Count))
system.cpu.icache.tags.warmupTick               87500                       # The tick when the warmup percentage was hit. (Tick)
system.cpu.icache.tags.occupancies::cpu.inst   255.813367                       # Average occupied blocks per tick, per requestor ((Count/Tick))
system.cpu.icache.tags.avgOccs::cpu.inst     0.999271                       # Average percentage of cache occupancy ((Ratio/Tick))
system.cpu.icache.tags.avgOccs::total        0.999271                       # Average percentage of cache occupancy ((Ratio/Tick))
system.cpu.icache.tags.occupanciesTaskId::1024          256                       # Occupied blocks per task id (Count)
system.cpu.icache.tags.ageTaskId_1024::4          256                       # Occupied blocks per task id, per block age (Count)
system.cpu.icache.tags.ratioOccsTaskId::1024            1                       # Ratio of occupied blocks and all blocks, per task id (Ratio)
system.cpu.icache.tags.tagAccesses           14294243                       # Number of tag accesses (Count)
system.cpu.icache.tags.dataAccesses          14294243                       # Number of data accesses (Count)
system.cpu.icache.tags.power_state.pwrStateResidencyTicks::UNDEFINED  20965095000                       # Cumulative time (in ticks) in various power states (Tick)
system.cpu.iew.idleCycles                           0                       # Number of cycles IEW is idle (Cycle)
system.cpu.iew.squashCycles                     23671                       # Number of cycles IEW is squashing (Cycle)
system.cpu.iew.blockCycles                    2975822                       # Number of cycles IEW is blocking (Cycle)
system.cpu.iew.unblockCycles                    72535                       # Number of cycles IEW is unblocking (Cycle)
system.cpu.iew.dispatchedInsts               51303516                       # Number of instructions dispatched to IQ (Count)
system.cpu.iew.dispSquashedInsts                 2321                       # Number of squashed instructions skipped by dispatch (Count)
system.cpu.iew.dispLoadInsts                  2573197                       # Number of dispatched load instructions (Count)
system.cpu.iew.dispStoreInsts                 1843293                       # Number of dispatched store instructions (Count)
system.cpu.iew.dispNonSpecInsts                   154                       # Number of dispatched non-speculative instructions (Count)
system.cpu.iew.iqFullEvents                     18067                       # Number of times the IQ has become full, causing a stall (Count)
system.cpu.iew.lsqFullEvents                    26866                       # Number of times the LSQ has become full, causing a stall (Count)
system.cpu.iew.memOrderViolationEvents            311                       # Number of memory order violations (Count)
system.cpu.iew.predictedTakenIncorrect          11490                       # Number of branches that were predicted taken incorrectly (Count)
system.cpu.iew.predictedNotTakenIncorrect        16197                       # Number of branches that were predicted not taken incorrectly (Count)
system.cpu.iew.branchMispredicts                27687                       # Number of branch mispredicts detected at execute (Count)
system.cpu.iew.instsToCommit                 50888746                       # Cumulative count of insts sent to commit (Count)
system.cpu.iew.writebackCount                50877381                       # Cumulative count of insts written-back (Count)
system.cpu.iew.producerInst                  32994425                       # Number of instructions producing a value (Count)
system.cpu.iew.consumerInst                  55686529                       # Number of instructions consuming a value (Count)
system.cpu.iew.wbRate                        1.213383                       # Insts written-back per cycle ((Count/Cycle))
system.cpu.iew.wbFanout                      0.592503                       # Average fanout of values written-back ((Count/Count))
system.cpu.lsq0.forwLoads                       53202                       # Number of loads that had data forwarded from stores (Count)
system.cpu.lsq0.squashedLoads                  125400                       # Number of loads squashed (Count)
system.cpu.lsq0.ignoredResponses                   46                       # Number of memory responses ignored because the instruction is squashed (Count)
system.cpu.lsq0.memOrderViolation                 311                       # Number of memory ordering violations (Count)
system.cpu.lsq0.squashedStores                  50521                       # Number of stores squashed (Count)
system.cpu.lsq0.rescheduledLoads                 9196                       # Number of loads that were rescheduled (Count)
system.cpu.lsq0.blockedByCache                 725486                       # Number of times an access to memory failed due to the cache being blocked (Count)
system.cpu.lsq0.loadToUse::samples            2447784                       # Distribution of cycle latency between the first time a load is issued and its completion (Unspecified)
system.cpu.lsq0.loadToUse::mean             52.874924                       # Distribution of cycle latency between the first time a load is issued and its completion (Unspecified)
system.cpu.lsq0.loadToUse::stdev            73.058153                       # Distribution of cycle latency between the first time a load is issued and its completion (Unspecified)
system.cpu.lsq0.loadToUse::0-9                 602073     24.60%     24.60% # Distribution of cycle latency between the first time a load is issued and its completion (Unspecified)
system.cpu.lsq0.loadToUse::10-19               127620      5.21%     29.81% # Distribution of cycle latency between the first time a load is issued and its completion (Unspecified)
system.cpu.lsq0.loadToUse::20-29               800503     32.70%     62.51% # Distribution of cycle latency between the first time a load is issued and its completion (Unspecified)
system.cpu.lsq0.loadToUse::30-39               157967      6.45%     68.97% # Distribution of cycle latency between the first time a load is issued and its completion (Unspecified)
system.cpu.lsq0.loadToUse::40-49               250835     10.25%     79.21% # Distribution of cycle latency between the first time a load is issued and its completion (Unspecified)
system.cpu.lsq0.loadToUse::50-59                16763      0.68%     79.90% # Distribution of cycle latency between the first time a load is issued and its completion (Unspecified)
[...]
system.mem_ctrls.dram.perBankWrBursts::7           88                       # Per bank write bursts (Count)
system.mem_ctrls.dram.perBankWrBursts::8           34                       # Per bank write bursts (Count)
system.mem_ctrls.dram.perBankWrBursts::9           12                       # Per bank write bursts (Count)
system.mem_ctrls.dram.perBankWrBursts::10            8                       # Per bank write bursts (Count)
system.mem_ctrls.dram.perBankWrBursts::11           26                       # Per bank write bursts (Count)
system.mem_ctrls.dram.perBankWrBursts::12            6                       # Per bank write bursts (Count)
system.mem_ctrls.dram.perBankWrBursts::13           19                       # Per bank write bursts (Count)
system.mem_ctrls.dram.perBankWrBursts::14           41                       # Per bank write bursts (Count)
system.mem_ctrls.dram.perBankWrBursts::15           39                       # Per bank write bursts (Count)
system.mem_ctrls.dram.totQLat                13598000                       # Total ticks spent queuing (Tick)
system.mem_ctrls.dram.totBusLat               2695000                       # Total ticks spent in databus transfers (Tick)
system.mem_ctrls.dram.totMemAccLat           23704250                       # Total ticks spent from burst creation until serviced by the DRAM (Tick)
system.mem_ctrls.dram.avgQLat                25228.20                       # Average queueing delay per DRAM burst ((Tick/Count))
system.mem_ctrls.dram.avgBusLat               5000.00                       # Average bus latency per DRAM burst ((Tick/Count))
system.mem_ctrls.dram.avgMemAccLat           43978.20                       # Average memory access latency per DRAM burst ((Tick/Count))
system.mem_ctrls.dram.readRowHits                 302                       # Number of row buffer hits during reads (Count)
system.mem_ctrls.dram.writeRowHits                390                       # Number of row buffer hits during writes (Count)
system.mem_ctrls.dram.readRowHitRate            56.03                       # Row buffer hit rate for reads (Ratio)
system.mem_ctrls.dram.writeRowHitRate           68.54                       # Row buffer hit rate for writes (Ratio)
system.mem_ctrls.dram.bytesPerActivate::samples          414                       # Bytes accessed per row activation (Byte)
system.mem_ctrls.dram.bytesPerActivate::mean   175.304348                       # Bytes accessed per row activation (Byte)
system.mem_ctrls.dram.bytesPerActivate::gmean   125.839694                       # Bytes accessed per row activation (Byte)
system.mem_ctrls.dram.bytesPerActivate::stdev   173.746020                       # Bytes accessed per row activation (Byte)
system.mem_ctrls.dram.bytesPerActivate::0-127          190     45.89%     45.89% # Bytes accessed per row activation (Byte)
system.mem_ctrls.dram.bytesPerActivate::128-255          133     32.13%     78.02% # Bytes accessed per row activation (Byte)
system.mem_ctrls.dram.bytesPerActivate::256-383           36      8.70%     86.71% # Bytes accessed per row activation (Byte)
system.mem_ctrls.dram.bytesPerActivate::384-511           25      6.04%     92.75% # Bytes accessed per row activation (Byte)
system.mem_ctrls.dram.bytesPerActivate::512-639           13      3.14%     95.89% # Bytes accessed per row activation (Byte)
system.mem_ctrls.dram.bytesPerActivate::640-767            9      2.17%     98.07% # Bytes accessed per row activation (Byte)
system.mem_ctrls.dram.bytesPerActivate::768-895            2      0.48%     98.55% # Bytes accessed per row activation (Byte)
system.mem_ctrls.dram.bytesPerActivate::896-1023            5      1.21%     99.76% # Bytes accessed per row activation (Byte)
system.mem_ctrls.dram.bytesPerActivate::1024-1151            1      0.24%    100.00% # Bytes accessed per row activation (Byte)
system.mem_ctrls.dram.bytesPerActivate::total          414                       # Bytes accessed per row activation (Byte)
system.mem_ctrls.dram.bytesRead                 34496                       # Total bytes read (Byte)
system.mem_ctrls.dram.bytesWritten              36416                       # Total bytes written (Byte)
system.mem_ctrls.dram.avgRdBW             1198.693446                       # Average DRAM read bandwidth in MiBytes/s ((Byte/Second))
system.mem_ctrls.dram.avgWrBW             1265.411078                       # Average DRAM write bandwidth in MiBytes/s ((Byte/Second))
system.mem_ctrls.dram.peakBW                 12800.00                       # Theoretical peak bandwidth in MiByte/s ((Byte/Second))
system.mem_ctrls.dram.busUtil                   19.25                       # Data bus utilization in percentage (Ratio)
system.mem_ctrls.dram.busUtilRead                9.36                       # Data bus utilization in percentage for reads (Ratio)
system.mem_ctrls.dram.busUtilWrite               9.89                       # Data bus utilization in percentage for writes (Ratio)
system.mem_ctrls.dram.pageHitRate               62.45                       # Row buffer hit rate, read and write combined (Ratio)
system.mem_ctrls.dram.power_state.pwrStateResidencyTicks::UNDEFINED     28778000                       # Cumulative time (in ticks) in various power states (Tick)
system.mem_ctrls.dram.rank0.actEnergy         1706460                       # Energy for activate commands per rank (pJ) (Joule)
system.mem_ctrls.dram.rank0.preEnergy          891825                       # Energy for precharge commands per rank (pJ) (Joule)
system.mem_ctrls.dram.rank0.readEnergy        2056320                       # Energy for read commands per rank (pJ) (Joule)
system.mem_ctrls.dram.rank0.writeEnergy       2004480                       # Energy for write commands per rank (pJ) (Joule)
system.mem_ctrls.dram.rank0.refreshEnergy 2458560.000000                       # Energy for refresh commands per rank (pJ) (Joule)
system.mem_ctrls.dram.rank0.actBackEnergy     13067250                       # Energy for active background per rank (pJ) (Joule)
system.mem_ctrls.dram.rank0.preBackEnergy        47040                       # Energy for precharge background per rank (pJ) (Joule)
system.mem_ctrls.dram.rank0.actPowerDownEnergy            0                       # Energy for active power-down per rank (pJ) (Joule)
system.mem_ctrls.dram.rank0.prePowerDownEnergy            0                       # Energy for precharge power-down per rank (pJ) (Joule)
system.mem_ctrls.dram.rank0.selfRefreshEnergy            0                       # Energy for self refresh per rank (pJ) (Joule)
system.mem_ctrls.dram.rank0.totalEnergy      22231935                       # Total energy per rank (pJ) (Joule)
system.mem_ctrls.dram.rank0.averagePower   772.532316                       # Core power per rank (mW) (Watt)
system.mem_ctrls.dram.rank0.totalIdleTime            0                       # Total Idle time Per DRAM Rank (Tick)
system.mem_ctrls.dram.rank0.pwrStateTime::IDLE        13500                       # Time in different power states (Tick)
system.mem_ctrls.dram.rank0.pwrStateTime::REF      1040000                       # Time in different power states (Tick)
system.mem_ctrls.dram.rank0.pwrStateTime::SREF            0                       # Time in different power states (Tick)
system.mem_ctrls.dram.rank0.pwrStateTime::PRE_PDN            0                       # Time in different power states (Tick)
system.mem_ctrls.dram.rank0.pwrStateTime::ACT     27724500                       # Time in different power states (Tick)
system.mem_ctrls.dram.rank0.pwrStateTime::ACT_PDN            0                       # Time in different power states (Tick)
system.mem_ctrls.dram.rank1.actEnergy         1270920                       # Energy for activate commands per rank (pJ) (Joule)
system.mem_ctrls.dram.rank1.preEnergy          679305                       # Energy for precharge commands per rank (pJ) (Joule)
system.mem_ctrls.dram.rank1.readEnergy        1813560                       # Energy for read commands per rank (pJ) (Joule)
system.mem_ctrls.dram.rank1.writeEnergy        965700                       # Energy for write commands per rank (pJ) (Joule)
system.mem_ctrls.dram.rank1.refreshEnergy 2458560.000000                       # Energy for refresh commands per rank (pJ) (Joule)
system.mem_ctrls.dram.rank1.actBackEnergy     13037040                       # Energy for active background per rank (pJ) (Joule)
system.mem_ctrls.dram.rank1.preBackEnergy        72480                       # Energy for precharge background per rank (pJ) (Joule)
system.mem_ctrls.dram.rank1.actPowerDownEnergy            0                       # Energy for active power-down per rank (pJ) (Joule)
system.mem_ctrls.dram.rank1.prePowerDownEnergy            0                       # Energy for precharge power-down per rank (pJ) (Joule)
system.mem_ctrls.dram.rank1.selfRefreshEnergy            0                       # Energy for self refresh per rank (pJ) (Joule)
system.mem_ctrls.dram.rank1.totalEnergy      20297565                       # Total energy per rank (pJ) (Joule)
system.mem_ctrls.dram.rank1.averagePower   705.315345                       # Core power per rank (mW) (Watt)
system.mem_ctrls.dram.rank1.totalIdleTime            0                       # Total Idle time Per DRAM Rank (Tick)
system.mem_ctrls.dram.rank1.pwrStateTime::IDLE        78000                       # Time in different power states (Tick)
system.mem_ctrls.dram.rank1.pwrStateTime::REF      1040000                       # Time in different power states (Tick)
system.mem_ctrls.dram.rank1.pwrStateTime::SREF            0                       # Time in different power states (Tick)
system.mem_ctrls.dram.rank1.pwrStateTime::PRE_PDN            0                       # Time in different power states (Tick)
system.mem_ctrls.dram.rank1.pwrStateTime::ACT     27660000                       # Time in different power states (Tick)
system.mem_ctrls.dram.rank1.pwrStateTime::ACT_PDN            0                       # Time in different power states (Tick)
system.mem_ctrls.power_state.pwrStateResidencyTicks::UNDEFINED     28778000                       # Cumulative time (in ticks) in various power states (Tick)
system.membus.transDist::ReadResp                 517                       # Transaction distribution (Count)
system.membus.transDist::WritebackDirty           561                       # Transaction distribution (Count)
system.membus.transDist::CleanEvict               155                       # Transaction distribution (Count)
system.membus.transDist::ReadExReq                 25                       # Transaction distribution (Count)
system.membus.transDist::ReadExResp                25                       # Transaction distribution (Count)
system.membus.transDist::ReadSharedReq            514                       # Transaction distribution (Count)
system.membus.pktCount_system.l2.mem_side_port::system.mem_ctrls.port         1797                       # Packet count per connected requestor and responder (Count)
system.membus.pktCount::total                    1797                       # Packet count per connected requestor and responder (Count)
system.membus.pktSize_system.l2.mem_side_port::system.mem_ctrls.port        70592                       # Cumulative packet size per connected requestor and responder (Byte)
system.membus.pktSize::total                    70592                       # Cumulative packet size per connected requestor and responder (Byte)
system.membus.snoops                                0                       # Total snoops (Count)
system.membus.snoopTraffic                          0                       # Total snoop traffic (Byte)
system.membus.snoopFanout::samples                539                       # Request fanout histogram (Count)
system.membus.snoopFanout::mean                     0                       # Request fanout histogram (Count)
system.membus.snoopFanout::stdev                    0                       # Request fanout histogram (Count)
system.membus.snoopFanout::underflows               0      0.00%      0.00% # Request fanout histogram (Count)
system.membus.snoopFanout::0                      539    100.00%    100.00% # Request fanout histogram (Count)
system.membus.snoopFanout::1                        0      0.00%    100.00% # Request fanout histogram (Count)
system.membus.snoopFanout::overflows                0      0.00%    100.00% # Request fanout histogram (Count)
system.membus.snoopFanout::min_value                0                       # Request fanout histogram (Count)
system.membus.snoopFanout::max_value                0                       # Request fanout histogram (Count)
system.membus.snoopFanout::total                  539                       # Request fanout histogram (Count)
system.membus.power_state.pwrStateResidencyTicks::UNDEFINED     28778000                       # Cumulative time (in ticks) in various power states (Tick)
system.membus.reqLayer0.occupancy             3624500                       # Layer occupancy (ticks) (Tick)
system.membus.reqLayer0.utilization               0.1                       # Layer utilization (Ratio)
system.membus.respLayer1.occupancy            2907500                       # Layer occupancy (ticks) (Tick)
system.membus.respLayer1.utilization              0.1                       # Layer utilization (Ratio)
system.membus.snoop_filter.totRequests           1255                       # Total number of requests made to the snoop filter. (Count)
system.membus.snoop_filter.hitSingleRequests          716                       # Number of requests hitting in the snoop filter with a single holder of the requested data. (Count)
system.membus.snoop_filter.hitMultiRequests            0                       # Number of requests hitting in the snoop filter with multiple (>1) holders of the requested data. (Count)
system.membus.snoop_filter.totSnoops                0                       # Total number of snoops made to the snoop filter. (Count)
system.membus.snoop_filter.hitSingleSnoops            0                       # Number of snoops hitting in the snoop filter with a single holder of the requested data. (Count)
system.membus.snoop_filter.hitMultiSnoops            0                       # Number of snoops hitting in the snoop filter with multiple (>1) holders of the requested data. (Count)
system.tol2bus.transDist::ReadResp                542                       # Transaction distribution (Count)
system.tol2bus.transDist::WritebackDirty          654                       # Transaction distribution (Count)
system.tol2bus.transDist::WritebackClean          225                       # Transaction distribution (Count)
system.tol2bus.transDist::CleanEvict              405                       # Transaction distribution (Count)
system.tol2bus.transDist::ReadExReq                25                       # Transaction distribution (Count)
system.tol2bus.transDist::ReadExResp               25                       # Transaction distribution (Count)
system.tol2bus.transDist::ReadCleanReq            226                       # Transaction distribution (Count)
system.tol2bus.transDist::ReadSharedReq           313                       # Transaction distribution (Count)
system.tol2bus.pktCount_system.cpu.icache.mem_side_port::system.l2.cpu_side_port          676                       # Packet count per connected requestor and responder (Count)
system.tol2bus.pktCount_system.cpu.dcache.mem_side_port::system.l2.cpu_side_port         1022                       # Packet count per connected requestor and responder (Count)
system.tol2bus.pktCount::total                   1698                       # Packet count per connected requestor and responder (Count)
system.tol2bus.pktSize_system.cpu.icache.mem_side_port::system.l2.cpu_side_port        28800                       # Cumulative packet size per connected requestor and responder (Byte)
system.tol2bus.pktSize_system.cpu.dcache.mem_side_port::system.l2.cpu_side_port        27776                       # Cumulative packet size per connected requestor and responder (Byte)
system.tol2bus.pktSize::total                   56576                       # Cumulative packet size per connected requestor and responder (Byte)
system.tol2bus.snoops                             717                       # Total snoops (Count)
system.tol2bus.snoopTraffic                     35968                       # Total snoop traffic (Byte)
system.tol2bus.snoopFanout::samples              1281                       # Request fanout histogram (Count)
system.tol2bus.snoopFanout::mean                    0                       # Request fanout histogram (Count)
system.tol2bus.snoopFanout::stdev                   0                       # Request fanout histogram (Count)
system.tol2bus.snoopFanout::underflows              0      0.00%      0.00% # Request fanout histogram (Count)
system.tol2bus.snoopFanout::0                    1281    100.00%    100.00% # Request fanout histogram (Count)
system.tol2bus.snoopFanout::1                       0      0.00%    100.00% # Request fanout histogram (Count)
system.tol2bus.snoopFanout::2                       0      0.00%    100.00% # Request fanout histogram (Count)
system.tol2bus.snoopFanout::overflows               0      0.00%    100.00% # Request fanout histogram (Count)
system.tol2bus.snoopFanout::min_value               0                       # Request fanout histogram (Count)
system.tol2bus.snoopFanout::max_value               0                       # Request fanout histogram (Count)
system.tol2bus.snoopFanout::total                1281                       # Request fanout histogram (Count)
system.tol2bus.power_state.pwrStateResidencyTicks::UNDEFINED     28778000                       # Cumulative time (in ticks) in various power states (Tick)
system.tol2bus.reqLayer0.occupancy             882500                       # Layer occupancy (ticks) (Tick)
system.tol2bus.reqLayer0.utilization              0.0                       # Layer utilization (Ratio)
system.tol2bus.respLayer0.occupancy            337500                       # Layer occupancy (ticks) (Tick)
system.tol2bus.respLayer0.utilization             0.0                       # Layer utilization (Ratio)
system.tol2bus.respLayer1.occupancy            513000                       # Layer occupancy (ticks) (Tick)
system.tol2bus.respLayer1.utilization             0.0                       # Layer utilization (Ratio)
system.tol2bus.snoop_filter.totRequests          1131                       # Total number of requests made to the snoop filter. (Count)
system.tol2bus.snoop_filter.hitSingleRequests          567                       # Number of requests hitting in the snoop filter with a single holder of the requested data. (Count)
system.tol2bus.snoop_filter.hitMultiRequests            0                       # Number of requests hitting in the snoop filter with multiple (>1) holders of the requested data. (Count)
system.tol2bus.snoop_filter.totSnoops               0                       # Total number of snoops made to the snoop filter. (Count)
system.tol2bus.snoop_filter.hitSingleSnoops            0                       # Number of snoops hitting in the snoop filter with a single holder of the requested data. (Count)
system.tol2bus.snoop_filter.hitMultiSnoops            0                       # Number of snoops hitting in the snoop filter with multiple (>1) holders of the requested data. (Count)
system.voltage_domain.voltage                       1                       # Voltage in Volts (Volt)
system.workload.inst.arm                            0                       # number of arm instructions executed (Count)
system.workload.inst.quiesce                        0                       # number of quiesce instructions executed (Count)

---------- End Simulation Statistics   ----------
