
---------- Begin Simulation Statistics ----------
simSeconds                                   0.023673                       # Number of seconds simulated (Second)
simTicks                                  23672518000                       # Number of ticks simulated (Tick)
finalTick                                 24662511000                       # Number of ticks from beginning of simulation (restored from checkpoints and never reset) (Tick)
simFreq                                  1000000000000                       # The number of ticks per simulated second ((Tick/Second))
hostSeconds                                    138.78                       # Real time elapsed on the host (Second)
hostTickRate                                170572165                       # The number of ticks simulated per host second (ticks/s) ((Tick/Second))
hostMemory                                     680120                       # Number of bytes of host memory used (Byte)
simInsts                                     30974256                       # Number of instructions simulated (Count)
simOps                                       31243881                       # Number of ops (including micro ops) simulated (Count)
hostInstRate                                   223185                       # Simulator instruction rate (inst/s) ((Count/Second))
hostOpRate                                     225127                       # Simulator op (including micro ops) rate (op/s) ((Count/Second))
system.clk_domain.clock                          1000                       # Clock period in ticks (Tick)
system.cpu.numCycles                         47345036                       # Number of cpu cycles simulated (Cycle)
system.cpu.numWorkItemsStarted                      0                       # Number of work items this cpu started (Count)
system.cpu.numWorkItemsCompleted                    0                       # Number of work items this cpu completed (Count)
system.cpu.instsAdded                        29723294                       # Number of instructions added to the IQ (excludes non-spec) (Count)
system.cpu.nonSpecInstsAdded                        1                       # Number of non-speculative instructions added to the IQ (Count)
system.cpu.instsIssued                       38954626                       # Number of instructions issued (Count)
system.cpu.squashedInstsIssued                    233                       # Number of squashed instructions issued (Count)
system.cpu.squashedInstsExamined               405751                       # Number of squashed instructions iterated over during squash; mainly for profiling (Count)
system.cpu.squashedOperandsExamined            171138                       # Number of squashed operands that are examined and possibly removed from graph (Count)
system.cpu.numIssuedDist::samples            47343976                       # Number of insts issued each cycle (Count)
system.cpu.numIssuedDist::mean               0.822800                       # Number of insts issued each cycle (Count)
system.cpu.numIssuedDist::stdev              1.805809                       # Number of insts issued each cycle (Count)
system.cpu.numIssuedDist::underflows                0      0.00%      0.00% # Number of insts issued each cycle (Count)
system.cpu.numIssuedDist::0                  36941513     78.03%     78.03% # Number of insts issued each cycle (Count)
system.cpu.numIssuedDist::1                   1570008      3.32%     81.34% # Number of insts issued each cycle (Count)
system.cpu.numIssuedDist::2                   1625678      3.43%     84.78% # Number of insts issued each cycle (Count)
system.cpu.numIssuedDist::3                   1409905      2.98%     87.76% # Number of insts issued each cycle (Count)
system.cpu.numIssuedDist::4                   2858477      6.04%     93.79% # Number of insts issued each cycle (Count)
system.cpu.numIssuedDist::5                    970250      2.05%     95.84% # Number of insts issued each cycle (Count)
system.cpu.numIssuedDist::6                    812283      1.72%     97.56% # Number of insts issued each cycle (Count)
system.cpu.numIssuedDist::7                    502205      1.06%     98.62% # Number of insts issued each cycle (Count)
system.cpu.numIssuedDist::8                    653657      1.38%    100.00% # Number of insts issued each cycle (Count)
system.cpu.numIssuedDist::overflows                 0      0.00%    100.00% # Number of insts issued each cycle (Count)
system.cpu.numIssuedDist::min_value                 0                       # Number of insts issued each cycle (Count)
system.cpu.numIssuedDist::max_value                 8                       # Number of insts issued each cycle (Count)
system.cpu.numIssuedDist::total              47343976                       # Number of insts issued each cycle (Count)
system.cpu.statFuBusy::No_OpClass                   0      0.00%      0.00% # attempts to use FU when none available (Count)
system.cpu.statFuBusy::IntAlu                     282      0.01%      0.01% # attempts to use FU when none available (Count)
system.cpu.statFuBusy::IntMult                      0      0.00%      0.01% # attempts to use FU when none available (Count)
system.cpu.statFuBusy::IntDiv                       0      0.00%      0.01% # attempts to use FU when none available (Count)
system.cpu.statFuBusy::FloatAdd                     0      0.00%      0.01% # attempts to use FU when none available (Count)
system.cpu.statFuBusy::FloatCmp                     0      0.00%      0.01% # attempts to use FU when none available (Count)
system.cpu.statFuBusy::FloatCvt                     0      0.00%      0.01% # attempts to use FU when none available (Count)
system.cpu.statFuBusy::FloatMult                    0      0.00%      0.01% # attempts to use FU when none available (Count)
system.cpu.statFuBusy::FloatMultAcc                 0      0.00%      0.01% # attempts to use FU when none available (Count)
system.cpu.statFuBusy::FloatDiv                     0      0.00%      0.01% # attempts to use FU when none available (Count)
system.cpu.statFuBusy::FloatMisc                    0      0.00%      0.01% # attempts to use FU when none available (Count)
system.cpu.statFuBusy::FloatSqrt                    0      0.00%      0.01% # attempts to use FU when none available (Count)
system.cpu.statFuBusy::SimdAdd                      0      0.00%      0.01% # attempts to use FU when none available (Count)
system.cpu.statFuBusy::SimdAddAcc                   0      0.00%      0.01% # attempts to use FU when none available (Count)
system.cpu.statFuBusy::SimdAlu                  27005      1.22%      1.24% # attempts to use FU when none available (Count)
system.cpu.statFuBusy::SimdCmp                      0      0.00%      1.24% # attempts to use FU when none available (Count)
system.cpu.statFuBusy::SimdCvt                      0      0.00%      1.24% # attempts to use FU when none available (Count)
system.cpu.statFuBusy::SimdMisc                     0      0.00%      1.24% # attempts to use FU when none available (Count)
system.cpu.statFuBusy::SimdMult                 80127      3.63%      4.87% # attempts to use FU when none available (Count)
system.cpu.statFuBusy::SimdMultAcc              89887      4.08%      8.95% # attempts to use FU when none available (Count)
system.cpu.statFuBusy::SimdShift                    0      0.00%      8.95% # attempts to use FU when none available (Count)
system.cpu.statFuBusy::SimdShiftAcc                 0      0.00%      8.95% # attempts to use FU when none available (Count)
system.cpu.statFuBusy::SimdDiv                      0      0.00%      8.95% # attempts to use FU when none available (Count)
system.cpu.statFuBusy::SimdSqrt                     0      0.00%      8.95% # attempts to use FU when none available (Count)
system.cpu.statFuBusy::SimdFloatAdd                 0      0.00%      8.95% # attempts to use FU when none available (Count)
system.cpu.statFuBusy::SimdFloatAlu                 0      0.00%      8.95% # attempts to use FU when none available (Count)
system.cpu.statFuBusy::SimdFloatCmp                 0      0.00%      8.95% # attempts to use FU when none available (Count)
system.cpu.statFuBusy::SimdFloatCvt                 0      0.00%      8.95% # attempts to use FU when none available (Count)
system.cpu.statFuBusy::SimdFloatDiv                 0      0.00%      8.95% # attempts to use FU when none available (Count)
system.cpu.statFuBusy::SimdFloatMisc                0      0.00%      8.95% # attempts to use FU when none available (Count)
system.cpu.statFuBusy::SimdFloatMult                0      0.00%      8.95% # attempts to use FU when none available (Count)
system.cpu.statFuBusy::SimdFloatMultAcc             0      0.00%      8.95% # attempts to use FU when none available (Count)
system.cpu.statFuBusy::SimdFloatSqrt                0      0.00%      8.95% # attempts to use FU when none available (Count)
system.cpu.statFuBusy::SimdReduceAdd                0      0.00%      8.95% # attempts to use FU when none available (Count)
system.cpu.statFuBusy::SimdReduceAlu                0      0.00%      8.95% # attempts to use FU when none available (Count)
system.cpu.statFuBusy::SimdReduceCmp                0      0.00%      8.95% # attempts to use FU when none available (Count)
system.cpu.statFuBusy::SimdFloatReduceAdd            0      0.00%      8.95% # attempts to use FU when none available (Count)
system.cpu.statFuBusy::SimdFloatReduceCmp            0      0.00%      8.95% # attempts to use FU when none available (Count)
system.cpu.statFuBusy::SimdAes                      0      0.00%      8.95% # attempts to use FU when none available (Count)
system.cpu.statFuBusy::SimdAesMix                   0      0.00%      8.95% # attempts to use FU when none available (Count)
system.cpu.statFuBusy::SimdSha1Hash                 0      0.00%      8.95% # attempts to use FU when none available (Count)
system.cpu.statFuBusy::SimdSha1Hash2                0      0.00%      8.95% # attempts to use FU when none available (Count)
system.cpu.statFuBusy::SimdSha256Hash               0      0.00%      8.95% # attempts to use FU when none available (Count)
system.cpu.statFuBusy::SimdSha256Hash2              0      0.00%      8.95% # attempts to use FU when none available (Count)
system.cpu.statFuBusy::SimdShaSigma2                0      0.00%      8.95% # attempts to use FU when none available (Count)
system.cpu.statFuBusy::SimdShaSigma3                0      0.00%      8.95% # attempts to use FU when none available (Count)
system.cpu.statFuBusy::SimdPredAlu                  0      0.00%      8.95% # attempts to use FU when none available (Count)
system.cpu.statFuBusy::MemRead                2007191     91.05%    100.00% # attempts to use FU when none available (Count)
system.cpu.statFuBusy::MemWrite                    11      0.00%    100.00% # attempts to use FU when none available (Count)
system.cpu.statFuBusy::FloatMemRead                 0      0.00%    100.00% # attempts to use FU when none available (Count)
system.cpu.statFuBusy::FloatMemWrite                0      0.00%    100.00% # attempts to use FU when none available (Count)
system.cpu.statFuBusy::IprAccess                    0      0.00%    100.00% # attempts to use FU when none available (Count)
system.cpu.statFuBusy::InstPrefetch                 0      0.00%    100.00% # attempts to use FU when none available (Count)
system.cpu.statIssuedInstType_0::No_OpClass            0      0.00%      0.00% # Number of instructions issued per FU type, per thread (Count)
system.cpu.statIssuedInstType_0::IntAlu      15756844     40.45%     40.45% # Number of instructions issued per FU type, per thread (Count)
system.cpu.statIssuedInstType_0::IntMult            1      0.00%     40.45% # Number of instructions issued per FU type, per thread (Count)
system.cpu.statIssuedInstType_0::IntDiv             0      0.00%     40.45% # Number of instructions issued per FU type, per thread (Count)
system.cpu.statIssuedInstType_0::FloatAdd            0      0.00%     40.45% # Number of instructions issued per FU type, per thread (Count)
system.cpu.statIssuedInstType_0::FloatCmp            0      0.00%     40.45% # Number of instructions issued per FU type, per thread (Count)
system.cpu.statIssuedInstType_0::FloatCvt            0      0.00%     40.45% # Number of instructions issued per FU type, per thread (Count)
system.cpu.statIssuedInstType_0::FloatMult            0      0.00%     40.45% # Number of instructions issued per FU type, per thread (Count)
system.cpu.statIssuedInstType_0::FloatMultAcc            0      0.00%     40.45% # Number of instructions issued per FU type, per thread (Count)
system.cpu.statIssuedInstType_0::FloatDiv            0      0.00%     40.45% # Number of instructions issued per FU type, per thread (Count)
system.cpu.statIssuedInstType_0::FloatMisc            0      0.00%     40.45% # Number of instructions issued per FU type, per thread (Count)
system.cpu.statIssuedInstType_0::FloatSqrt            0      0.00%     40.45% # Number of instructions issued per FU type, per thread (Count)
system.cpu.statIssuedInstType_0::SimdAdd      1676157      4.30%     44.75% # Number of instructions issued per FU type, per thread (Count)
system.cpu.statIssuedInstType_0::SimdAddAcc            0      0.00%     44.75% # Number of instructions issued per FU type, per thread (Count)
system.cpu.statIssuedInstType_0::SimdAlu       487790      1.25%     46.00% # Number of instructions issued per FU type, per thread (Count)
system.cpu.statIssuedInstType_0::SimdCmp            0      0.00%     46.00% # Number of instructions issued per FU type, per thread (Count)
system.cpu.statIssuedInstType_0::SimdCvt            0      0.00%     46.00% # Number of instructions issued per FU type, per thread (Count)
system.cpu.statIssuedInstType_0::SimdMisc       839125      2.15%     48.16% # Number of instructions issued per FU type, per thread (Count)
system.cpu.statIssuedInstType_0::SimdMult       847781      2.18%     50.33% # Number of instructions issued per FU type, per thread (Count)
system.cpu.statIssuedInstType_0::SimdMultAcc      6716818     17.24%     67.58% # Number of instructions issued per FU type, per thread (Count)
system.cpu.statIssuedInstType_0::SimdShift            0      0.00%     67.58% # Number of instructions issued per FU type, per thread (Count)
system.cpu.statIssuedInstType_0::SimdShiftAcc            0      0.00%     67.58% # Number of instructions issued per FU type, per thread (Count)
system.cpu.statIssuedInstType_0::SimdDiv            0      0.00%     67.58% # Number of instructions issued per FU type, per thread (Count)
system.cpu.statIssuedInstType_0::SimdSqrt            0      0.00%     67.58% # Number of instructions issued per FU type, per thread (Count)
system.cpu.statIssuedInstType_0::SimdFloatAdd            0      0.00%     67.58% # Number of instructions issued per FU type, per thread (Count)
system.cpu.statIssuedInstType_0::SimdFloatAlu            0      0.00%     67.58% # Number of instructions issued per FU type, per thread (Count)
system.cpu.statIssuedInstType_0::SimdFloatCmp            0      0.00%     67.58% # Number of instructions issued per FU type, per thread (Count)
system.cpu.statIssuedInstType_0::SimdFloatCvt            0      0.00%     67.58% # Number of instructions issued per FU type, per thread (Count)
system.cpu.statIssuedInstType_0::SimdFloatDiv            0      0.00%     67.58% # Number of instructions issued per FU type, per thread (Count)
system.cpu.statIssuedInstType_0::SimdFloatMisc            0      0.00%     67.58% # Number of instructions issued per FU type, per thread (Count)
system.cpu.statIssuedInstType_0::SimdFloatMult            0      0.00%     67.58% # Number of instructions issued per FU type, per thread (Count)
system.cpu.statIssuedInstType_0::SimdFloatMultAcc            0      0.00%     67.58% # Number of instructions issued per FU type, per thread (Count)
system.cpu.statIssuedInstType_0::SimdFloatSqrt            0      0.00%     67.58% # Number of instructions issued per FU type, per thread (Count)
system.cpu.statIssuedInstType_0::SimdReduceAdd            0      0.00%     67.58% # Number of instructions issued per FU type, per thread (Count)
system.cpu.statIssuedInstType_0::SimdReduceAlu            0      0.00%     67.58% # Number of instructions issued per FU type, per thread (Count)
system.cpu.statIssuedInstType_0::SimdReduceCmp            0      0.00%     67.58% # Number of instructions issued per FU type, per thread (Count)
system.cpu.statIssuedInstType_0::SimdFloatReduceAdd            0      0.00%     67.58% # Number of instructions issued per FU type, per thread (Count)
system.cpu.statIssuedInstType_0::SimdFloatReduceCmp            0      0.00%     67.58% # Number of instructions issued per FU type, per thread (Count)
system.cpu.statIssuedInstType_0::SimdAes            0      0.00%     67.58% # Number of instructions issued per FU type, per thread (Count)
system.cpu.statIssuedInstType_0::SimdAesMix            0      0.00%     67.58% # Number of instructions issued per FU type, per thread (Count)
system.cpu.statIssuedInstType_0::SimdSha1Hash            0      0.00%     67.58% # Number of instructions issued per FU type, per thread (Count)
system.cpu.statIssuedInstType_0::SimdSha1Hash2            0      0.00%     67.58% # Number of instructions issued per FU type, per thread (Count)
system.cpu.statIssuedInstType_0::SimdSha256Hash            0      0.00%     67.58% # Number of instructions issued per FU type, per thread (Count)
system.cpu.statIssuedInstType_0::SimdSha256Hash2            0      0.00%     67.58% # Number of instructions issued per FU type, per thread (Count)
system.cpu.statIssuedInstType_0::SimdShaSigma2            0      0.00%     67.58% # Number of instructions issued per FU type, per thread (Count)
system.cpu.statIssuedInstType_0::SimdShaSigma3            0      0.00%     67.58% # Number of instructions issued per FU type, per thread (Count)
system.cpu.statIssuedInstType_0::SimdPredAlu            0      0.00%     67.58% # Number of instructions issued per FU type, per thread (Count)
system.cpu.statIssuedInstType_0::MemRead     11789346     30.26%     97.84% # Number of instructions issued per FU type, per thread (Count)
system.cpu.statIssuedInstType_0::MemWrite       840764      2.16%    100.00% # Number of instructions issued per FU type, per thread (Count)
system.cpu.statIssuedInstType_0::FloatMemRead            0      0.00%    100.00% # Number of instructions issued per FU type, per thread (Count)
system.cpu.statIssuedInstType_0::FloatMemWrite            0      0.00%    100.00% # Number of instructions issued per FU type, per thread (Count)
system.cpu.statIssuedInstType_0::IprAccess            0      0.00%    100.00% # Number of instructions issued per FU type, per thread (Count)
system.cpu.statIssuedInstType_0::InstPrefetch            0      0.00%    100.00% # Number of instructions issued per FU type, per thread (Count)
system.cpu.statIssuedInstType_0::total       38954626                       # Number of instructions issued per FU type, per thread (Count)
system.cpu.issueRate                         0.822782                       # Inst issue rate ((Count/Cycle))
system.cpu.fuBusy                             2204503                       # FU busy when requested (Count)
system.cpu.fuBusyRate                        0.056592                       # FU busy rate (busy events/executed inst) ((Count/Count))
system.cpu.intInstQueueReads                 80539949                       # Number of integer instruction queue reads (Count)
system.cpu.intInstQueueWrites                16867268                       # Number of integer instruction queue writes (Count)
system.cpu.intInstQueueWakeupAccesses        16570604                       # Number of integer instruction queue wakeup accesses (Count)
system.cpu.fpInstQueueReads                         0                       # Number of floating instruction queue reads (Count)
system.cpu.fpInstQueueWrites                        0                       # Number of floating instruction queue writes (Count)
system.cpu.fpInstQueueWakeupAccesses                0                       # Number of floating instruction queue wakeup accesses (Count)
system.cpu.vecInstQueueReads                 46918009                       # Number of vector instruction queue reads (Count)
system.cpu.vecInstQueueWrites                13261778                       # Number of vector instruction queue writes (Count)
system.cpu.vecInstQueueWakeupAccesses        13084640                       # Number of vector instruction queue wakeup accesses (Count)
system.cpu.intAluAccesses                    16598084                       # Number of integer alu accesses (Count)
system.cpu.fpAluAccesses                            0                       # Number of floating point alu accesses (Count)
system.cpu.vecAluAccesses                    24561045                       # Number of vector alu accesses (Count)
system.cpu.numInsts                          38933417                       # Number of executed instructions (Count)
system.cpu.numLoadInsts                      11789324                       # Number of load instructions executed (Count)
system.cpu.numSquashedInsts                     21203                       # Number of squashed instructions skipped in execute (Count)
system.cpu.numSwp                                   0                       # Number of swp insts executed (Count)
system.cpu.numNop                                7453                       # Number of nop insts executed (Count)
system.cpu.numRefs                           12630022                       # Number of memory reference insts executed (Count)
system.cpu.numBranches                         435843                       # Number of branches executed (Count)
system.cpu.numStoreInsts                       840698                       # Number of stores executed (Count)
system.cpu.numRate                           0.822334                       # Inst execution rate ((Count/Cycle))
system.cpu.timesIdled                              11                       # Number of times that the entire CPU went into an idle state and unscheduled itself (Count)
system.cpu.idleCycles                            1060                       # Total number of cycles that the CPU has spent unscheduled due to idling (Cycle)
system.cpu.committedInsts                    29316866                       # Number of Instructions Simulated (Count)
system.cpu.committedOps                      29317391                       # Number of Ops (including micro ops) Simulated (Count)
system.cpu.cpi                               1.614942                       # CPI: Cycles Per Instruction ((Cycle/Count))
system.cpu.totalCpi                          1.614942                       # CPI: Total CPI of All Threads ((Cycle/Count))
system.cpu.ipc                               0.619217                       # IPC: Instructions Per Cycle ((Count/Cycle))
system.cpu.totalIpc                          0.619217                       # IPC: Total IPC of All Threads ((Count/Cycle))
system.cpu.intRegfileReads                   46106580                       # Number of integer regfile reads (Count)
system.cpu.intRegfileWrites                  14435776                       # Number of integer regfile writes (Count)
system.cpu.vecRegfileReads                   38412147                       # number of vector regfile reads (Count)
system.cpu.ccRegfileReads                     8887359                       # number of cc regfile reads (Count)
system.cpu.ccRegfileWrites                    8922321                       # number of cc regfile writes (Count)
system.cpu.miscRegfileReads                  45128595                       # number of misc regfile reads (Count)
system.cpu.MemDepUnit__0.insertedLoads        2520894                       # Number of loads inserted to the mem dependence unit. (Count)
system.cpu.MemDepUnit__0.insertedStores        841834                       # Number of stores inserted to the mem dependence unit. (Count)
system.cpu.MemDepUnit__0.conflictingLoads            0                       # Number of conflicting loads. (Count)
system.cpu.MemDepUnit__0.conflictingStores            0                       # Number of conflicting stores. (Count)
system.cpu.MemDepUnit__1.insertedLoads              0                       # Number of loads inserted to the mem dependence unit. (Count)
system.cpu.MemDepUnit__1.insertedStores             0                       # Number of stores inserted to the mem dependence unit. (Count)
system.cpu.MemDepUnit__1.conflictingLoads            0                       # Number of conflicting loads. (Count)
system.cpu.MemDepUnit__1.conflictingStores            0                       # Number of conflicting stores. (Count)
system.cpu.MemDepUnit__2.insertedLoads              0                       # Number of loads inserted to the mem dependence unit. (Count)
system.cpu.MemDepUnit__2.insertedStores             0                       # Number of stores inserted to the mem dependence unit. (Count)
system.cpu.MemDepUnit__2.conflictingLoads            0                       # Number of conflicting loads. (Count)
system.cpu.MemDepUnit__2.conflictingStores            0                       # Number of conflicting stores. (Count)
system.cpu.MemDepUnit__3.insertedLoads              0                       # Number of loads inserted to the mem dependence unit. (Count)
system.cpu.MemDepUnit__3.insertedStores             0                       # Number of stores inserted to the mem dependence unit. (Count)
system.cpu.MemDepUnit__3.conflictingLoads            0                       # Number of conflicting loads. (Count)
system.cpu.MemDepUnit__3.conflictingStores            0                       # Number of conflicting stores. (Count)
system.cpu.branchPred.lookups                  437542                       # Number of BP lookups (Count)
system.cpu.branchPred.condPredicted            437476                       # Number of conditional branches predicted (Count)
system.cpu.branchPred.condIncorrect              7473                       # Number of conditional branches incorrect (Count)
system.cpu.branchPred.BTBLookups               429946                       # Number of BTB lookups (Count)
system.cpu.branchPred.BTBUpdates                   18                       # Number of BTB updates (Count)
system.cpu.branchPred.BTBHits                  429928                       # Number of BTB hits (Count)
system.cpu.branchPred.BTBHitRatio            0.999958                       # BTB Hit Ratio (Ratio)
system.cpu.branchPred.RASUsed                       7                       # Number of times the RAS was used to get a target. (Count)
system.cpu.branchPred.RASIncorrect                  0                       # Number of incorrect RAS predictions. (Count)
system.cpu.branchPred.indirectLookups              34                       # Number of indirect predictor lookups. (Count)
system.cpu.branchPred.indirectHits                  0                       # Number of indirect target hits. (Count)
system.cpu.branchPred.indirectMisses               34                       # Number of indirect misses. (Count)
system.cpu.branchPred.indirectMispredicted            0                       # Number of mispredicted indirect branches. (Count)
system.cpu.commit.commitSquashedInsts          405230                       # The number of squashed insts skipped by commit (Count)
system.cpu.commit.commitNonSpecStalls               1                       # The number of times commit has been forced to stall to communicate backwards (Count)
system.cpu.commit.branchMispredicts              7471                       # The number of times a branch was mispredicted (Count)
system.cpu.commit.numCommittedDist::samples     47290545                       # Number of insts commited each cycle (Count)
system.cpu.commit.numCommittedDist::mean     0.620098                       # Number of insts commited each cycle (Count)
system.cpu.commit.numCommittedDist::stdev     2.034613                       # Number of insts commited each cycle (Count)
system.cpu.commit.numCommittedDist::underflows            0      0.00%      0.00% # Number of insts commited each cycle (Count)
system.cpu.commit.numCommittedDist::0        42585832     90.05%     90.05% # Number of insts commited each cycle (Count)
system.cpu.commit.numCommittedDist::1          207296      0.44%     90.49% # Number of insts commited each cycle (Count)
system.cpu.commit.numCommittedDist::2          727576      1.54%     92.03% # Number of insts commited each cycle (Count)
system.cpu.commit.numCommittedDist::3          200008      0.42%     92.45% # Number of insts commited each cycle (Count)
system.cpu.commit.numCommittedDist::4          184167      0.39%     92.84% # Number of insts commited each cycle (Count)
system.cpu.commit.numCommittedDist::5           14254      0.03%     92.87% # Number of insts commited each cycle (Count)
system.cpu.commit.numCommittedDist::6          356848      0.75%     93.63% # Number of insts commited each cycle (Count)
system.cpu.commit.numCommittedDist::7            3259      0.01%     93.63% # Number of insts commited each cycle (Count)
system.cpu.commit.numCommittedDist::8         3011305      6.37%    100.00% # Number of insts commited each cycle (Count)
system.cpu.commit.numCommittedDist::overflows            0      0.00%    100.00% # Number of insts commited each cycle (Count)
system.cpu.commit.numCommittedDist::min_value            0                       # Number of insts commited each cycle (Count)
system.cpu.commit.numCommittedDist::max_value            8                       # Number of insts commited each cycle (Count)
system.cpu.commit.numCommittedDist::total     47290545                       # Number of insts commited each cycle (Count)
system.cpu.commit.instsCommitted             29324226                       # Number of instructions committed (Count)
system.cpu.commit.opsCommitted               29324751                       # Number of ops (including micro ops) committed (Count)
system.cpu.commit.memRefs                     3327639                       # Number of memory references committed (Count)
system.cpu.commit.loads                       2495885                       # Number of loads committed (Count)
system.cpu.commit.amos                              0                       # Number of atomic instructions committed (Count)
system.cpu.commit.membars                           0                       # Number of memory barriers committed (Count)
system.cpu.commit.branches                     430595                       # Number of branches committed (Count)
system.cpu.commit.vectorInstructions         12958677                       # Number of committed Vector instructions. (Count)
system.cpu.commit.floating                          0                       # Number of committed floating point instructions. (Count)
system.cpu.commit.integer                    19255758                       # Number of committed integer instructions. (Count)
system.cpu.commit.functionCalls                     1                       # Number of function calls committed. (Count)
system.cpu.commit.committedInstType_0::No_OpClass            0      0.00%      0.00% # Class of committed instruction (Count)
system.cpu.commit.committedInstType_0::IntAlu     15534327     52.97%     52.97% # Class of committed instruction (Count)
system.cpu.commit.committedInstType_0::IntMult            1      0.00%     52.97% # Class of committed instruction (Count)
system.cpu.commit.committedInstType_0::IntDiv            0      0.00%     52.97% # Class of committed instruction (Count)
system.cpu.commit.committedInstType_0::FloatAdd            0      0.00%     52.97% # Class of committed instruction (Count)
system.cpu.commit.committedInstType_0::FloatCmp            0      0.00%     52.97% # Class of committed instruction (Count)
system.cpu.commit.committedInstType_0::FloatCvt            0      0.00%     52.97% # Class of committed instruction (Count)
system.cpu.commit.committedInstType_0::FloatMult            0      0.00%     52.97% # Class of committed instruction (Count)
system.cpu.commit.committedInstType_0::FloatMultAcc            0      0.00%     52.97% # Class of committed instruction (Count)
system.cpu.commit.committedInstType_0::FloatDiv            0      0.00%     52.97% # Class of committed instruction (Count)
system.cpu.commit.committedInstType_0::FloatMisc            0      0.00%     52.97% # Class of committed instruction (Count)
system.cpu.commit.committedInstType_0::FloatSqrt            0      0.00%     52.97% # Class of committed instruction (Count)
system.cpu.commit.committedInstType_0::SimdAdd      1663488      5.67%     58.65% # Class of committed instruction (Count)
system.cpu.commit.committedInstType_0::SimdAddAcc            0      0.00%     58.65% # Class of committed instruction (Count)
system.cpu.commit.committedInstType_0::SimdAlu       481856      1.64%     60.29% # Class of committed instruction (Count)
system.cpu.commit.committedInstType_0::SimdCmp            0      0.00%     60.29% # Class of committed instruction (Count)
system.cpu.commit.committedInstType_0::SimdCvt            0      0.00%     60.29% # Class of committed instruction (Count)
system.cpu.commit.committedInstType_0::SimdMisc       831744      2.84%     63.13% # Class of committed instruction (Count)
system.cpu.commit.committedInstType_0::SimdMult       831744      2.84%     65.96% # Class of committed instruction (Count)
system.cpu.commit.committedInstType_0::SimdMultAcc      6653952     22.69%     88.65% # Class of committed instruction (Count)
system.cpu.commit.committedInstType_0::SimdShift            0      0.00%     88.65% # Class of committed instruction (Count)
system.cpu.commit.committedInstType_0::SimdShiftAcc            0      0.00%     88.65% # Class of committed instruction (Count)
system.cpu.commit.committedInstType_0::SimdDiv            0      0.00%     88.65% # Class of committed instruction (Count)
system.cpu.commit.committedInstType_0::SimdSqrt            0      0.00%     88.65% # Class of committed instruction (Count)
system.cpu.commit.committedInstType_0::SimdFloatAdd            0      0.00%     88.65% # Class of committed instruction (Count)
system.cpu.commit.committedInstType_0::SimdFloatAlu            0      0.00%     88.65% # Class of committed instruction (Count)
system.cpu.commit.committedInstType_0::SimdFloatCmp            0      0.00%     88.65% # Class of committed instruction (Count)
system.cpu.commit.committedInstType_0::SimdFloatCvt            0      0.00%     88.65% # Class of committed instruction (Count)
system.cpu.commit.committedInstType_0::SimdFloatDiv            0      0.00%     88.65% # Class of committed instruction (Count)
system.cpu.commit.committedInstType_0::SimdFloatMisc            0      0.00%     88.65% # Class of committed instruction (Count)
system.cpu.commit.committedInstType_0::SimdFloatMult            0      0.00%     88.65% # Class of committed instruction (Count)
system.cpu.commit.committedInstType_0::SimdFloatMultAcc            0      0.00%     88.65% # Class of committed instruction (Count)
system.cpu.commit.committedInstType_0::SimdFloatSqrt            0      0.00%     88.65% # Class of committed instruction (Count)
system.cpu.commit.committedInstType_0::SimdReduceAdd            0      0.00%     88.65% # Class of committed instruction (Count)
system.cpu.commit.committedInstType_0::SimdReduceAlu            0      0.00%     88.65% # Class of committed instruction (Count)
system.cpu.commit.committedInstType_0::SimdReduceCmp            0      0.00%     88.65% # Class of committed instruction (Count)
system.cpu.commit.committedInstType_0::SimdFloatReduceAdd            0      0.00%     88.65% # Class of committed instruction (Count)
system.cpu.commit.committedInstType_0::SimdFloatReduceCmp            0      0.00%     88.65% # Class of committed instruction (Count)
system.cpu.commit.committedInstType_0::SimdAes            0      0.00%     88.65% # Class of committed instruction (Count)
system.cpu.commit.committedInstType_0::SimdAesMix            0      0.00%     88.65% # Class of committed instruction (Count)
system.cpu.commit.committedInstType_0::SimdSha1Hash            0      0.00%     88.65% # Class of committed instruction (Count)
system.cpu.commit.committedInstType_0::SimdSha1Hash2            0      0.00%     88.65% # Class of committed instruction (Count)
system.cpu.commit.committedInstType_0::SimdSha256Hash            0      0.00%     88.65% # Class of committed instruction (Count)
system.cpu.commit.committedInstType_0::SimdSha256Hash2            0      0.00%     88.65% # Class of committed instruction (Count)
system.cpu.commit.committedInstType_0::SimdShaSigma2            0      0.00%     88.65% # Class of committed instruction (Count)
system.cpu.commit.committedInstType_0::SimdShaSigma3            0      0.00%     88.65% # Class of committed instruction (Count)
system.cpu.commit.committedInstType_0::SimdPredAlu            0      0.00%     88.65% # Class of committed instruction (Count)
system.cpu.commit.committedInstType_0::MemRead      2495885      8.51%     97.16% # Class of committed instruction (Count)
system.cpu.commit.committedInstType_0::MemWrite       831754      2.84%    100.00% # Class of committed instruction (Count)
system.cpu.commit.committedInstType_0::FloatMemRead            0      0.00%    100.00% # Class of committed instruction (Count)
system.cpu.commit.committedInstType_0::FloatMemWrite            0      0.00%    100.00% # Class of committed instruction (Count)
system.cpu.commit.committedInstType_0::IprAccess            0      0.00%    100.00% # Class of committed instruction (Count)
system.cpu.commit.committedInstType_0::InstPrefetch            0      0.00%    100.00% # Class of committed instruction (Count)
system.cpu.commit.committedInstType_0::total     29324751                       # Class of committed instruction (Count)
system.cpu.commit.commitEligibleSamples       3011305                       # number cycles where commit BW limit reached (Cycle)
system.cpu.dcache.demandHits::cpu.data        2000228                       # number of demand (read+write) hits (Count)
system.cpu.dcache.demandHits::total           2000228                       # number of demand (read+write) hits (Count)
system.cpu.dcache.overallHits::cpu.data       2000228                       # number of overall hits (Count)
system.cpu.dcache.overallHits::total          2000228                       # number of overall hits (Count)
system.cpu.dcache.demandMisses::cpu.data      1352067                       # number of demand (read+write) misses (Count)
system.cpu.dcache.demandMisses::total         1352067                       # number of demand (read+write) misses (Count)
system.cpu.dcache.overallMisses::cpu.data      1352067                       # number of overall misses (Count)
system.cpu.dcache.overallMisses::total        1352067                       # number of overall misses (Count)
system.cpu.dcache.demandMissLatency::cpu.data  97769017930                       # number of demand (read+write) miss ticks (Tick)
system.cpu.dcache.demandMissLatency::total  97769017930                       # number of demand (read+write) miss ticks (Tick)
system.cpu.dcache.overallMissLatency::cpu.data  97769017930                       # number of overall miss ticks (Tick)
system.cpu.dcache.overallMissLatency::total  97769017930                       # number of overall miss ticks (Tick)
system.cpu.dcache.demandAccesses::cpu.data      3352295                       # number of demand (read+write) accesses (Count)
system.cpu.dcache.demandAccesses::total       3352295                       # number of demand (read+write) accesses (Count)
system.cpu.dcache.overallAccesses::cpu.data      3352295                       # number of overall (read+write) accesses (Count)
system.cpu.dcache.overallAccesses::total      3352295                       # number of overall (read+write) accesses (Count)
system.cpu.dcache.demandMissRate::cpu.data     0.403326                       # miss rate for demand accesses (Ratio)
system.cpu.dcache.demandMissRate::total      0.403326                       # miss rate for demand accesses (Ratio)
system.cpu.dcache.overallMissRate::cpu.data     0.403326                       # miss rate for overall accesses (Ratio)
system.cpu.dcache.overallMissRate::total     0.403326                       # miss rate for overall accesses (Ratio)
system.cpu.dcache.demandAvgMissLatency::cpu.data 72310.778926                       # average overall miss latency in ticks ((Tick/Count))
system.cpu.dcache.demandAvgMissLatency::total 72310.778926                       # average overall miss latency in ticks ((Tick/Count))
system.cpu.dcache.overallAvgMissLatency::cpu.data 72310.778926                       # average overall miss latency ((Tick/Count))
system.cpu.dcache.overallAvgMissLatency::total 72310.778926                       # average overall miss latency ((Tick/Count))
system.cpu.dcache.blockedCycles::no_mshrs     41362309                       # number of cycles access was blocked (Cycle)
system.cpu.dcache.blockedCycles::no_targets            0                       # number of cycles access was blocked (Cycle)
system.cpu.dcache.blockedCauses::no_mshrs       904373                       # number of times access was blocked (Count)
system.cpu.dcache.blockedCauses::no_targets            1                       # number of times access was blocked (Count)
system.cpu.dcache.avgBlocked::no_mshrs      45.735895                       # average number of cycles each access was blocked ((Cycle/Count))
system.cpu.dcache.avgBlocked::no_targets            0                       # average number of cycles each access was blocked ((Cycle/Count))
system.cpu.dcache.writebacks::writebacks       831977                       # number of writebacks (Count)
system.cpu.dcache.writebacks::total            831977                       # number of writebacks (Count)
system.cpu.dcache.demandMshrHits::cpu.data       284633                       # number of demand (read+write) MSHR hits (Count)
system.cpu.dcache.demandMshrHits::total        284633                       # number of demand (read+write) MSHR hits (Count)
system.cpu.dcache.overallMshrHits::cpu.data       284633                       # number of overall MSHR hits (Count)
system.cpu.dcache.overallMshrHits::total       284633                       # number of overall MSHR hits (Count)
system.cpu.dcache.demandMshrMisses::cpu.data      1067434                       # number of demand (read+write) MSHR misses (Count)
system.cpu.dcache.demandMshrMisses::total      1067434                       # number of demand (read+write) MSHR misses (Count)
system.cpu.dcache.overallMshrMisses::cpu.data      1067434                       # number of overall MSHR misses (Count)
system.cpu.dcache.overallMshrMisses::total      1067434                       # number of overall MSHR misses (Count)
system.cpu.dcache.demandMshrMissLatency::cpu.data  89436627930                       # number of demand (read+write) MSHR miss ticks (Tick)
system.cpu.dcache.demandMshrMissLatency::total  89436627930                       # number of demand (read+write) MSHR miss ticks (Tick)
system.cpu.dcache.overallMshrMissLatency::cpu.data  89436627930                       # number of overall MSHR miss ticks (Tick)
system.cpu.dcache.overallMshrMissLatency::total  89436627930                       # number of overall MSHR miss ticks (Tick)
system.cpu.dcache.demandMshrMissRate::cpu.data     0.318419                       # mshr miss ratio for demand accesses (Ratio)
system.cpu.dcache.demandMshrMissRate::total     0.318419                       # mshr miss ratio for demand accesses (Ratio)
system.cpu.dcache.overallMshrMissRate::cpu.data     0.318419                       # mshr miss ratio for overall accesses (Ratio)
system.cpu.dcache.overallMshrMissRate::total     0.318419                       # mshr miss ratio for overall accesses (Ratio)
system.cpu.dcache.demandAvgMshrMissLatency::cpu.data 83786.564724                       # average overall mshr miss latency ((Tick/Count))
system.cpu.dcache.demandAvgMshrMissLatency::total 83786.564724                       # average overall mshr miss latency ((Tick/Count))
system.cpu.dcache.overallAvgMshrMissLatency::cpu.data 83786.564724                       # average overall mshr miss latency ((Tick/Count))
system.cpu.dcache.overallAvgMshrMissLatency::total 83786.564724                       # average overall mshr miss latency ((Tick/Count))
system.cpu.dcache.replacements                1067431                       # number of replacements (Count)
system.cpu.dcache.ReadReq.hits::cpu.data      2000217                       # number of ReadReq hits (Count)
system.cpu.dcache.ReadReq.hits::total         2000217                       # number of ReadReq hits (Count)
system.cpu.dcache.ReadReq.misses::cpu.data       520324                       # number of ReadReq misses (Count)
system.cpu.dcache.ReadReq.misses::total        520324                       # number of ReadReq misses (Count)
system.cpu.dcache.ReadReq.missLatency::cpu.data  13264929500                       # number of ReadReq miss ticks (Tick)
system.cpu.dcache.ReadReq.missLatency::total  13264929500                       # number of ReadReq miss ticks (Tick)
system.cpu.dcache.ReadReq.accesses::cpu.data      2520541                       # number of ReadReq accesses(hits+misses) (Count)
system.cpu.dcache.ReadReq.accesses::total      2520541                       # number of ReadReq accesses(hits+misses) (Count)
system.cpu.dcache.ReadReq.missRate::cpu.data     0.206433                       # miss rate for ReadReq accesses (Ratio)
system.cpu.dcache.ReadReq.missRate::total     0.206433                       # miss rate for ReadReq accesses (Ratio)
system.cpu.dcache.ReadReq.avgMissLatency::cpu.data 25493.595337                       # average ReadReq miss latency ((Tick/Count))
system.cpu.dcache.ReadReq.avgMissLatency::total 25493.595337                       # average ReadReq miss latency ((Tick/Count))
system.cpu.dcache.ReadReq.mshrHits::cpu.data       284633                       # number of ReadReq MSHR hits (Count)
system.cpu.dcache.ReadReq.mshrHits::total       284633                       # number of ReadReq MSHR hits (Count)
system.cpu.dcache.ReadReq.mshrMisses::cpu.data       235691                       # number of ReadReq MSHR misses (Count)
system.cpu.dcache.ReadReq.mshrMisses::total       235691                       # number of ReadReq MSHR misses (Count)
system.cpu.dcache.ReadReq.mshrMissLatency::cpu.data   5764282500                       # number of ReadReq MSHR miss ticks (Tick)
system.cpu.dcache.ReadReq.mshrMissLatency::total   5764282500                       # number of ReadReq MSHR miss ticks (Tick)
system.cpu.dcache.ReadReq.mshrMissRate::cpu.data     0.093508                       # mshr miss rate for ReadReq accesses (Ratio)
system.cpu.dcache.ReadReq.mshrMissRate::total     0.093508                       # mshr miss rate for ReadReq accesses (Ratio)
system.cpu.dcache.ReadReq.avgMshrMissLatency::cpu.data 24456.947868                       # average ReadReq mshr miss latency ((Tick/Count))
system.cpu.dcache.ReadReq.avgMshrMissLatency::total 24456.947868                       # average ReadReq mshr miss latency ((Tick/Count))
system.cpu.dcache.WriteReq.hits::cpu.data           11                       # number of WriteReq hits (Count)
system.cpu.dcache.WriteReq.hits::total             11                       # number of WriteReq hits (Count)
system.cpu.dcache.WriteReq.misses::cpu.data       831743                       # number of WriteReq misses (Count)
system.cpu.dcache.WriteReq.misses::total       831743                       # number of WriteReq misses (Count)
system.cpu.dcache.WriteReq.missLatency::cpu.data  84504088430                       # number of WriteReq miss ticks (Tick)
system.cpu.dcache.WriteReq.missLatency::total  84504088430                       # number of WriteReq miss ticks (Tick)
system.cpu.dcache.WriteReq.accesses::cpu.data       831754                       # number of WriteReq accesses(hits+misses) (Count)
system.cpu.dcache.WriteReq.accesses::total       831754                       # number of WriteReq accesses(hits+misses) (Count)
system.cpu.dcache.WriteReq.missRate::cpu.data     0.999987                       # miss rate for WriteReq accesses (Ratio)
system.cpu.dcache.WriteReq.missRate::total     0.999987                       # miss rate for WriteReq accesses (Ratio)
system.cpu.dcache.WriteReq.avgMissLatency::cpu.data 101598.797261                       # average WriteReq miss latency ((Tick/Count))
system.cpu.dcache.WriteReq.avgMissLatency::total 101598.797261                       # average WriteReq miss latency ((Tick/Count))
system.cpu.dcache.WriteReq.mshrMisses::cpu.data       831743                       # number of WriteReq MSHR misses (Count)
system.cpu.dcache.WriteReq.mshrMisses::total       831743                       # number of WriteReq MSHR misses (Count)
system.cpu.dcache.WriteReq.mshrMissLatency::cpu.data  83672345430                       # number of WriteReq MSHR miss ticks (Tick)
system.cpu.dcache.WriteReq.mshrMissLatency::total  83672345430                       # number of WriteReq MSHR miss ticks (Tick)
system.cpu.dcache.WriteReq.mshrMissRate::cpu.data     0.999987                       # mshr miss rate for WriteReq accesses (Ratio)
system.cpu.dcache.WriteReq.mshrMissRate::total     0.999987                       # mshr miss rate for WriteReq accesses (Ratio)
system.cpu.dcache.WriteReq.avgMshrMissLatency::cpu.data 100598.797261                       # average WriteReq mshr miss latency ((Tick/Count))
system.cpu.dcache.WriteReq.avgMshrMissLatency::total 100598.797261                       # average WriteReq mshr miss latency ((Tick/Count))
system.cpu.dcache.power_state.pwrStateResidencyTicks::UNDEFINED  24662511000                       # Cumulative time (in ticks) in various power states (Tick)
system.cpu.dcache.tags.tagsInUse                 1024                       # Average ticks per tags in use ((Tick/Count))
system.cpu.dcache.tags.totalRefs              3112310                       # Total number of references to valid blocks. (Count)
system.cpu.dcache.tags.sampledRefs            1067431                       # Sample count of references to valid blocks. (Count)
system.cpu.dcache.tags.avgRefs               2.915701                       # Average number of references to valid blocks. ((Count/Count))
system.cpu.dcache.tags.warmupTick                   0                       # The tick when the warmup percentage was hit. (Tick)
system.cpu.dcache.tags.occupancies::cpu.data         1024                       # Average occupied blocks per tick, per requestor ((Count/Tick))
system.cpu.dcache.tags.avgOccs::cpu.data            1                       # Average percentage of cache occupancy ((Ratio/Tick))
system.cpu.dcache.tags.avgOccs::total               1                       # Average percentage of cache occupancy ((Ratio/Tick))
system.cpu.dcache.tags.occupanciesTaskId::1024         1024                       # Occupied blocks per task id (Count)
system.cpu.dcache.tags.ageTaskId_1024::0          204                       # Occupied blocks per task id, per block age (Count)
system.cpu.dcache.tags.ageTaskId_1024::1          689                       # Occupied blocks per task id, per block age (Count)
system.cpu.dcache.tags.ageTaskId_1024::2          131                       # Occupied blocks per task id, per block age (Count)
system.cpu.dcache.tags.ratioOccsTaskId::1024            1                       # Ratio of occupied blocks and all blocks, per task id (Ratio)
system.cpu.dcache.tags.tagAccesses           14476611                       # Number of tag accesses (Count)
system.cpu.dcache.tags.dataAccesses          14476611                       # Number of data accesses (Count)
system.cpu.dcache.tags.power_state.pwrStateResidencyTicks::UNDEFINED  24662511000                       # Cumulative time (in ticks) in various power states (Tick)
system.cpu.decode.idleCycles                  1024654                       # Number of cycles decode is idle (Cycle)
system.cpu.decode.blockedCycles              42486560                       # Number of cycles decode is blocked (Cycle)
system.cpu.decode.runCycles                   2469359                       # Number of cycles decode is running (Cycle)
system.cpu.decode.unblockCycles               1354256                       # Number of cycles decode is unblocking (Cycle)
system.cpu.decode.squashCycles                   9147                       # Number of cycles decode is squashing (Cycle)
system.cpu.decode.branchResolved               428353                       # Number of times decode resolved a branch (Count)
system.cpu.decode.branchMispred                     4                       # Number of times decode detected a branch misprediction (Count)
system.cpu.decode.decodedInsts               29820856                       # Number of instructions handled by decode (Count)
system.cpu.decode.squashedInsts                    15                       # Number of squashed instructions handled by decode (Count)
system.cpu.fetch.icacheStallCycles            2167674                       # Number of cycles fetch is stalled on an Icache miss (Cycle)
system.cpu.fetch.insts                       30087244                       # Number of instructions fetch has processed (Count)
system.cpu.fetch.branches                      437542                       # Number of branches that fetch encountered (Count)
system.cpu.fetch.predictedBranches             429935                       # Number of branches that fetch has predicted taken (Count)
system.cpu.fetch.cycles                      45167153                       # Number of cycles fetch has run and was not squashing or blocked (Cycle)
system.cpu.fetch.squashCycles                   18298                       # Number of cycles fetch has spent squashing (Cycle)
system.cpu.fetch.cacheLines                   2159493                       # Number of cache lines fetched (Count)
system.cpu.fetch.icacheSquashes                  1240                       # Number of outstanding Icache misses that were squashed (Count)
system.cpu.fetch.nisnDist::samples           47343976                       # Number of instructions fetched each cycle (Total) (Count)
system.cpu.fetch.nisnDist::mean              0.635517                       # Number of instructions fetched each cycle (Total) (Count)
system.cpu.fetch.nisnDist::stdev             2.091213                       # Number of instructions fetched each cycle (Total) (Count)
system.cpu.fetch.nisnDist::underflows               0      0.00%      0.00% # Number of instructions fetched each cycle (Total) (Count)
system.cpu.fetch.nisnDist::0                 43112786     91.06%     91.06% # Number of instructions fetched each cycle (Total) (Count)
system.cpu.fetch.nisnDist::1                       74      0.00%     91.06% # Number of instructions fetched each cycle (Total) (Count)
system.cpu.fetch.nisnDist::2                   255932      0.54%     91.60% # Number of instructions fetched each cycle (Total) (Count)
system.cpu.fetch.nisnDist::3                       76      0.00%     91.60% # Number of instructions fetched each cycle (Total) (Count)
system.cpu.fetch.nisnDist::4                   236576      0.50%     92.10% # Number of instructions fetched each cycle (Total) (Count)
system.cpu.fetch.nisnDist::5                       19      0.00%     92.10% # Number of instructions fetched each cycle (Total) (Count)
system.cpu.fetch.nisnDist::6                   635694      1.34%     93.45% # Number of instructions fetched each cycle (Total) (Count)
system.cpu.fetch.nisnDist::7                     7388      0.02%     93.46% # Number of instructions fetched each cycle (Total) (Count)
system.cpu.fetch.nisnDist::8                  3095431      6.54%    100.00% # Number of instructions fetched each cycle (Total) (Count)
system.cpu.fetch.nisnDist::overflows                0      0.00%    100.00% # Number of instructions fetched each cycle (Total) (Count)
system.cpu.fetch.nisnDist::min_value                0                       # Number of instructions fetched each cycle (Total) (Count)
system.cpu.fetch.nisnDist::max_value                8                       # Number of instructions fetched each cycle (Total) (Count)
system.cpu.fetch.nisnDist::total             47343976                       # Number of instructions fetched each cycle (Total) (Count)
system.cpu.fetch.branchRate                  0.009242                       # Number of branch fetches per cycle (Ratio)
system.cpu.fetch.rate                        0.635489                       # Number of inst fetches per cycle ((Count/Cycle))
system.cpu.icache.demandHits::cpu.inst        2159481                       # number of demand (read+write) hits (Count)
system.cpu.icache.demandHits::total           2159481                       # number of demand (read+write) hits (Count)
system.cpu.icache.overallHits::cpu.inst       2159481                       # number of overall hits (Count)
system.cpu.icache.overallHits::total          2159481                       # number of overall hits (Count)
system.cpu.icache.demandMisses::cpu.inst           12                       # number of demand (read+write) misses (Count)
system.cpu.icache.demandMisses::total              12                       # number of demand (read+write) misses (Count)
system.cpu.icache.overallMisses::cpu.inst           12                       # number of overall misses (Count)
system.cpu.icache.overallMisses::total             12                       # number of overall misses (Count)
system.cpu.icache.demandMissLatency::cpu.inst       908500                       # number of demand (read+write) miss ticks (Tick)
system.cpu.icache.demandMissLatency::total       908500                       # number of demand (read+write) miss ticks (Tick)
system.cpu.icache.overallMissLatency::cpu.inst       908500                       # number of overall miss ticks (Tick)
system.cpu.icache.overallMissLatency::total       908500                       # number of overall miss ticks (Tick)
system.cpu.icache.demandAccesses::cpu.inst      2159493                       # number of demand (read+write) accesses (Count)
system.cpu.icache.demandAccesses::total       2159493                       # number of demand (read+write) accesses (Count)
system.cpu.icache.overallAccesses::cpu.inst      2159493                       # number of overall (read+write) accesses (Count)
system.cpu.icache.overallAccesses::total      2159493                       # number of overall (read+write) accesses (Count)
system.cpu.icache.demandMissRate::cpu.inst     0.000006                       # miss rate for demand accesses (Ratio)
system.cpu.icache.demandMissRate::total      0.000006                       # miss rate for demand accesses (Ratio)
system.cpu.icache.overallMissRate::cpu.inst     0.000006                       # miss rate for overall accesses (Ratio)
system.cpu.icache.overallMissRate::total     0.000006                       # miss rate for overall accesses (Ratio)
system.cpu.icache.demandAvgMissLatency::cpu.inst 75708.333333                       # average overall miss latency in ticks ((Tick/Count))
system.cpu.icache.demandAvgMissLatency::total 75708.333333                       # average overall miss latency in ticks ((Tick/Count))
system.cpu.icache.overallAvgMissLatency::cpu.inst 75708.333333                       # average overall miss latency ((Tick/Count))
system.cpu.icache.overallAvgMissLatency::total 75708.333333                       # average overall miss latency ((Tick/Count))
system.cpu.icache.blockedCycles::no_mshrs            0                       # number of cycles access was blocked (Cycle)
system.cpu.icache.blockedCycles::no_targets            0                       # number of cycles access was blocked (Cycle)
system.cpu.icache.blockedCauses::no_mshrs            0                       # number of times access was blocked (Count)
system.cpu.icache.blockedCauses::no_targets            0                       # number of times access was blocked (Count)
system.cpu.icache.avgBlocked::no_mshrs            nan                       # average number of cycles each access was blocked ((Cycle/Count))
system.cpu.icache.avgBlocked::no_targets          nan                       # average number of cycles each access was blocked ((Cycle/Count))
system.cpu.icache.writebacks::writebacks           11                       # number of writebacks (Count)
system.cpu.icache.writebacks::total                11                       # number of writebacks (Count)
system.cpu.icache.demandMshrHits::cpu.inst            2                       # number of demand (read+write) MSHR hits (Count)
system.cpu.icache.demandMshrHits::total             2                       # number of demand (read+write) MSHR hits (Count)
system.cpu.icache.overallMshrHits::cpu.inst            2                       # number of overall MSHR hits (Count)
system.cpu.icache.overallMshrHits::total            2                       # number of overall MSHR hits (Count)
system.cpu.icache.demandMshrMisses::cpu.inst           10                       # number of demand (read+write) MSHR misses (Count)
system.cpu.icache.demandMshrMisses::total           10                       # number of demand (read+write) MSHR misses (Count)
system.cpu.icache.overallMshrMisses::cpu.inst           10                       # number of overall MSHR misses (Count)
system.cpu.icache.overallMshrMisses::total           10                       # number of overall MSHR misses (Count)
system.cpu.icache.demandMshrMissLatency::cpu.inst       784500                       # number of demand (read+write) MSHR miss ticks (Tick)
system.cpu.icache.demandMshrMissLatency::total       784500                       # number of demand (read+write) MSHR miss ticks (Tick)
system.cpu.icache.overallMshrMissLatency::cpu.inst       784500                       # number of overall MSHR miss ticks (Tick)
system.cpu.icache.overallMshrMissLatency::total       784500                       # number of overall MSHR miss ticks (Tick)
system.cpu.icache.demandMshrMissRate::cpu.inst     0.000005                       # mshr miss ratio for demand accesses (Ratio)
system.cpu.icache.demandMshrMissRate::total     0.000005                       # mshr miss ratio for demand accesses (Ratio)
system.cpu.icache.overallMshrMissRate::cpu.inst     0.000005                       # mshr miss ratio for overall accesses (Ratio)
system.cpu.icache.overallMshrMissRate::total     0.000005                       # mshr miss ratio for overall accesses (Ratio)
system.cpu.icache.demandAvgMshrMissLatency::cpu.inst        78450                       # average overall mshr miss latency ((Tick/Count))
system.cpu.icache.demandAvgMshrMissLatency::total        78450                       # average overall mshr miss latency ((Tick/Count))
system.cpu.icache.overallAvgMshrMissLatency::cpu.inst        78450                       # average overall mshr miss latency ((Tick/Count))
system.cpu.icache.overallAvgMshrMissLatency::total        78450                       # average overall mshr miss latency ((Tick/Count))
system.cpu.icache.replacements                     11                       # number of replacements (Count)
system.cpu.icache.ReadReq.hits::cpu.inst      2159481                       # number of ReadReq hits (Count)
system.cpu.icache.ReadReq.hits::total         2159481                       # number of ReadReq hits (Count)
system.cpu.icache.ReadReq.misses::cpu.inst           12                       # number of ReadReq misses (Count)
system.cpu.icache.ReadReq.misses::total            12                       # number of ReadReq misses (Count)
system.cpu.icache.ReadReq.missLatency::cpu.inst       908500                       # number of ReadReq miss ticks (Tick)
system.cpu.icache.ReadReq.missLatency::total       908500                       # number of ReadReq miss ticks (Tick)
system.cpu.icache.ReadReq.accesses::cpu.inst      2159493                       # number of ReadReq accesses(hits+misses) (Count)
system.cpu.icache.ReadReq.accesses::total      2159493                       # number of ReadReq accesses(hits+misses) (Count)
system.cpu.icache.ReadReq.missRate::cpu.inst     0.000006                       # miss rate for ReadReq accesses (Ratio)
system.cpu.icache.ReadReq.missRate::total     0.000006                       # miss rate for ReadReq accesses (Ratio)
system.cpu.icache.ReadReq.avgMissLatency::cpu.inst 75708.333333                       # average ReadReq miss latency ((Tick/Count))
system.cpu.icache.ReadReq.avgMissLatency::total 75708.333333                       # average ReadReq miss latency ((Tick/Count))
system.cpu.icache.ReadReq.mshrHits::cpu.inst            2                       # number of ReadReq MSHR hits (Count)
system.cpu.icache.ReadReq.mshrHits::total            2                       # number of ReadReq MSHR hits (Count)
system.cpu.icache.ReadReq.mshrMisses::cpu.inst           10                       # number of ReadReq MSHR misses (Count)
system.cpu.icache.ReadReq.mshrMisses::total           10                       # number of ReadReq MSHR misses (Count)
system.cpu.icache.ReadReq.mshrMissLatency::cpu.inst       784500                       # number of ReadReq MSHR miss ticks (Tick)
system.cpu.icache.ReadReq.mshrMissLatency::total       784500                       # number of ReadReq MSHR miss ticks (Tick)
system.cpu.icache.ReadReq.mshrMissRate::cpu.inst     0.000005                       # mshr miss rate for ReadReq accesses (Ratio)
system.cpu.icache.ReadReq.mshrMissRate::total     0.000005                       # mshr miss rate for ReadReq accesses (Ratio)
system.cpu.icache.ReadReq.avgMshrMissLatency::cpu.inst        78450                       # average ReadReq mshr miss latency ((Tick/Count))
system.cpu.icache.ReadReq.avgMshrMissLatency::total        78450                       # average ReadReq mshr miss latency ((Tick/Count))
system.cpu.icache.power_state.pwrStateResidencyTicks::UNDEFINED  24662511000                       # Cumulative time (in ticks) in various power states (Tick)
system.cpu.icache.tags.tagsInUse                  256                       # Average ticks per tags in use ((Tick/Count))
system.cpu.icache.tags.totalRefs                   48                       # Total number of references to valid blocks. (Count)
system.cpu.icache.tags.sampledRefs                 11                       # Sample count of references to valid blocks. (Count)
system.cpu.icache.tags.avgRefs               4.363636                       # Average number of references to valid blocks. ((Count/Count))
system.cpu.icache.tags.warmupTick                   0                       # The tick when the warmup percentage was hit. (Tick)
system.cpu.icache.tags.occupancies::cpu.inst          256                       # Average occupied blocks per tick, per requestor ((Count/Tick))
system.cpu.icache.tags.avgOccs::cpu.inst            1                       # Average percentage of cache occupancy ((Ratio/Tick))
system.cpu.icache.tags.avgOccs::total               1                       # Average percentage of cache occupancy ((Ratio/Tick))
system.cpu.icache.tags.occupanciesTaskId::1024          256                       # Occupied blocks per task id (Count)
system.cpu.icache.tags.ageTaskId_1024::4          256                       # Occupied blocks per task id, per block age (Count)
system.cpu.icache.tags.ratioOccsTaskId::1024            1                       # Ratio of occupied blocks and all blocks, per task id (Ratio)
system.cpu.icache.tags.tagAccesses            8637983                       # Number of tag accesses (Count)
system.cpu.icache.tags.dataAccesses           8637983                       # Number of data accesses (Count)
system.cpu.icache.tags.power_state.pwrStateResidencyTicks::UNDEFINED  24662511000                       # Cumulative time (in ticks) in various power states (Tick)
system.cpu.iew.idleCycles                           0                       # Number of cycles IEW is idle (Cycle)
system.cpu.iew.squashCycles                      9147                       # Number of cycles IEW is squashing (Cycle)
system.cpu.iew.blockCycles                   34929539                       # Number of cycles IEW is blocking (Cycle)
system.cpu.iew.unblockCycles                   203298                       # Number of cycles IEW is unblocking (Cycle)
system.cpu.iew.dispatchedInsts               29730748                       # Number of instructions dispatched to IQ (Count)
system.cpu.iew.dispSquashedInsts                 1762                       # Number of squashed instructions skipped by dispatch (Count)
system.cpu.iew.dispLoadInsts                  2520894                       # Number of dispatched load instructions (Count)
system.cpu.iew.dispStoreInsts                  841834                       # Number of dispatched store instructions (Count)
system.cpu.iew.dispNonSpecInsts                     1                       # Number of dispatched non-speculative instructions (Count)
system.cpu.iew.iqFullEvents                    150493                       # Number of times the IQ has become full, causing a stall (Count)
system.cpu.iew.lsqFullEvents                        0                       # Number of times the LSQ has become full, causing a stall (Count)
system.cpu.iew.memOrderViolationEvents              0                       # Number of memory order violations (Count)
system.cpu.iew.predictedTakenIncorrect           7455                       # Number of branches that were predicted taken incorrectly (Count)
system.cpu.iew.predictedNotTakenIncorrect           18                       # Number of branches that were predicted not taken incorrectly (Count)
system.cpu.iew.branchMispredicts                 7473                       # Number of branch mispredicts detected at execute (Count)
system.cpu.iew.instsToCommit                 29664363                       # Cumulative count of insts sent to commit (Count)
system.cpu.iew.writebackCount                29655244                       # Cumulative count of insts written-back (Count)
system.cpu.iew.producerInst                  22084681                       # Number of instructions producing a value (Count)
system.cpu.iew.consumerInst                  32704821                       # Number of instructions consuming a value (Count)
system.cpu.iew.wbRate                        0.626364                       # Insts written-back per cycle ((Count/Cycle))
system.cpu.iew.wbFanout                      0.675273                       # Average fanout of values written-back ((Count/Count))
system.cpu.lsq0.forwLoads                           0                       # Number of loads that had data forwarded from stores (Count)
system.cpu.lsq0.squashedLoads                   24983                       # Number of loads squashed (Count)
system.cpu.lsq0.ignoredResponses                    0                       # Number of memory responses ignored because the instruction is squashed (Count)
system.cpu.lsq0.memOrderViolation                   0                       # Number of memory ordering violations (Count)
system.cpu.lsq0.squashedStores                  10048                       # Number of stores squashed (Count)
system.cpu.lsq0.rescheduledLoads                    2                       # Number of loads that were rescheduled (Count)
system.cpu.lsq0.blockedByCache                 843399                       # Number of times an access to memory failed due to the cache being blocked (Count)
system.cpu.lsq0.loadToUse::samples            2495885                       # Distribution of cycle latency between the first time a load is issued and its completion (Unspecified)
system.cpu.lsq0.loadToUse::mean            213.803859                       # Distribution of cycle latency between the first time a load is issued and its completion (Unspecified)
system.cpu.lsq0.loadToUse::stdev           189.443356                       # Distribution of cycle latency between the first time a load is issued and its completion (Unspecified)
system.cpu.lsq0.loadToUse::0-9                 555470     22.26%     22.26% # Distribution of cycle latency between the first time a load is issued and its completion (Unspecified)
system.cpu.lsq0.loadToUse::10-19               188669      7.56%     29.81% # Distribution of cycle latency between the first time a load is issued and its completion (Unspecified)
system.cpu.lsq0.loadToUse::20-29               123061      4.93%     34.75% # Distribution of cycle latency between the first time a load is issued and its completion (Unspecified)
system.cpu.lsq0.loadToUse::30-39                32321      1.29%     36.04% # Distribution of cycle latency between the first time a load is issued and its completion (Unspecified)
system.cpu.lsq0.loadToUse::40-49                 6856      0.27%     36.31% # Distribution of cycle latency between the first time a load is issued and its completion (Unspecified)
system.cpu.lsq0.loadToUse::50-59                 3182      0.13%     36.44% # Distribution of cycle latency between the first time a load is issued and its completion (Unspecified)
system.cpu.lsq0.loadToUse::60-69                 2311      0.09%     36.53% # Distribution of cycle latency between the first time a load is issued and its completion (Unspecified)
system.cpu.lsq0.loadToUse::70-79                 1943      0.08%     36.61% # Distribution of cycle latency between the first time a load is issued and its completion (Unspecified)
system.cpu.lsq0.loadToUse::80-89                 2984      0.12%     36.73% # Distribution of cycle latency between the first time a load is issued and its completion (Unspecified)
system.cpu.lsq0.loadToUse::90-99                 3118      0.12%     36.86% # Distribution of cycle latency between the first time a load is issued and its completion (Unspecified)
system.cpu.lsq0.loadToUse::100-109               3940      0.16%     37.02% # Distribution of cycle latency between the first time a load is issued and its completion (Unspecified)
system.cpu.lsq0.loadToUse::110-119               5182      0.21%     37.22% # Distribution of cycle latency between the first time a load is issued and its completion (Unspecified)
system.cpu.lsq0.loadToUse::120-129              12705      0.51%     37.73% # Distribution of cycle latency between the first time a load is issued and its completion (Unspecified)
system.cpu.lsq0.loadToUse::130-139              18712      0.75%     38.48% # Distribution of cycle latency between the first time a load is issued and its completion (Unspecified)
system.cpu.lsq0.loadToUse::140-149              37149      1.49%     39.97% # Distribution of cycle latency between the first time a load is issued and its completion (Unspecified)
system.cpu.lsq0.loadToUse::150-159              44519      1.78%     41.75% # Distribution of cycle latency between the first time a load is issued and its completion (Unspecified)
system.cpu.lsq0.loadToUse::160-169              52640      2.11%     43.86% # Distribution of cycle latency between the first time a load is issued and its completion (Unspecified)
system.cpu.lsq0.loadToUse::170-179              38959      1.56%     45.42% # Distribution of cycle latency between the first time a load is issued and its completion (Unspecified)
system.cpu.lsq0.loadToUse::180-189              27292      1.09%     46.52% # Distribution of cycle latency between the first time a load is issued and its completion (Unspecified)
system.cpu.lsq0.loadToUse::190-199              28209      1.13%     47.65% # Distribution of cycle latency between the first time a load is issued and its completion (Unspecified)
system.cpu.lsq0.loadToUse::200-209              20868      0.84%     48.48% # Distribution of cycle latency between the first time a load is issued and its completion (Unspecified)
system.cpu.lsq0.loadToUse::210-219              17511      0.70%     49.18% # Distribution of cycle latency between the first time a load is issued and its completion (Unspecified)
system.cpu.lsq0.loadToUse::220-229              19545      0.78%     49.97% # Distribution of cycle latency between the first time a load is issued and its completion (Unspecified)
system.cpu.lsq0.loadToUse::230-239              21832      0.87%     50.84% # Distribution of cycle latency between the first time a load is issued and its completion (Unspecified)
system.cpu.lsq0.loadToUse::240-249              23653      0.95%     51.79% # Distribution of cycle latency between the first time a load is issued and its completion (Unspecified)
system.cpu.lsq0.loadToUse::250-259              48157      1.93%     53.72% # Distribution of cycle latency between the first time a load is issued and its completion (Unspecified)
system.cpu.lsq0.loadToUse::260-269              52667      2.11%     55.83% # Distribution of cycle latency between the first time a load is issued and its completion (Unspecified)
system.cpu.lsq0.loadToUse::270-279              77115      3.09%     58.92% # Distribution of cycle latency between the first time a load is issued and its completion (Unspecified)
system.cpu.lsq0.loadToUse::280-289             126413      5.06%     63.98% # Distribution of cycle latency between the first time a load is issued and its completion (Unspecified)
system.cpu.lsq0.loadToUse::290-299              80646      3.23%     67.22% # Distribution of cycle latency between the first time a load is issued and its completion (Unspecified)
system.cpu.lsq0.loadToUse::overflows           818256     32.78%    100.00% # Distribution of cycle latency between the first time a load is issued and its completion (Unspecified)
system.cpu.lsq0.loadToUse::min_value                3                       # Distribution of cycle latency between the first time a load is issued and its completion (Unspecified)
system.cpu.lsq0.loadToUse::max_value             1358                       # Distribution of cycle latency between the first time a load is issued and its completion (Unspecified)
system.cpu.lsq0.loadToUse::total              2495885                       # Distribution of cycle latency between the first time a load is issued and its completion (Unspecified)
system.cpu.mmu.alignFaults                          0                       # Number of MMU faults due to alignment restrictions (Count)
system.cpu.mmu.prefetchFaults                       0                       # Number of MMU faults due to prefetch (Count)
system.cpu.mmu.domainFaults                         0                       # Number of MMU faults due to domain restrictions (Count)
system.cpu.mmu.permsFaults                          0                       # Number of MMU faults due to permissions restrictions (Count)
system.cpu.mmu.dtb.readHits                         0                       # Read hits (Count)
system.cpu.mmu.dtb.readMisses                       0                       # Read misses (Count)
system.cpu.mmu.dtb.writeHits                        0                       # Write hits (Count)
system.cpu.mmu.dtb.writeMisses                      0                       # Write misses (Count)
system.cpu.mmu.dtb.inserts                          0                       # Number of times an entry is inserted into the TLB (Count)
[...]
system.mem_ctrls.dram.perBankWrBursts::7           19                       # Per bank write bursts (Count)
system.mem_ctrls.dram.perBankWrBursts::8           72                       # Per bank write bursts (Count)
system.mem_ctrls.dram.perBankWrBursts::9           37                       # Per bank write bursts (Count)
system.mem_ctrls.dram.perBankWrBursts::10           72                       # Per bank write bursts (Count)
system.mem_ctrls.dram.perBankWrBursts::11           91                       # Per bank write bursts (Count)
system.mem_ctrls.dram.perBankWrBursts::12           23                       # Per bank write bursts (Count)
system.mem_ctrls.dram.perBankWrBursts::13            8                       # Per bank write bursts (Count)
system.mem_ctrls.dram.perBankWrBursts::14            1                       # Per bank write bursts (Count)
system.mem_ctrls.dram.perBankWrBursts::15           14                       # Per bank write bursts (Count)
system.mem_ctrls.dram.totQLat                13903000                       # Total ticks spent queuing (Tick)
system.mem_ctrls.dram.totBusLat               2660000                       # Total ticks spent in databus transfers (Tick)
system.mem_ctrls.dram.totMemAccLat           23878000                       # Total ticks spent from burst creation until serviced by the DRAM (Tick)
system.mem_ctrls.dram.avgQLat                26133.46                       # Average queueing delay per DRAM burst ((Tick/Count))
system.mem_ctrls.dram.avgBusLat               5000.00                       # Average bus latency per DRAM burst ((Tick/Count))
system.mem_ctrls.dram.avgMemAccLat           44883.46                       # Average memory access latency per DRAM burst ((Tick/Count))
system.mem_ctrls.dram.readRowHits                 305                       # Number of row buffer hits during reads (Count)
system.mem_ctrls.dram.writeRowHits                399                       # Number of row buffer hits during writes (Count)
system.mem_ctrls.dram.readRowHitRate            57.33                       # Row buffer hit rate for reads (Ratio)
system.mem_ctrls.dram.writeRowHitRate           75.86                       # Row buffer hit rate for writes (Ratio)
system.mem_ctrls.dram.bytesPerActivate::samples          357                       # Bytes accessed per row activation (Byte)
system.mem_ctrls.dram.bytesPerActivate::mean   200.067227                       # Bytes accessed per row activation (Byte)
system.mem_ctrls.dram.bytesPerActivate::gmean   133.569331                       # Bytes accessed per row activation (Byte)
system.mem_ctrls.dram.bytesPerActivate::stdev   209.682467                       # Bytes accessed per row activation (Byte)
system.mem_ctrls.dram.bytesPerActivate::0-127          172     48.18%     48.18% # Bytes accessed per row activation (Byte)
system.mem_ctrls.dram.bytesPerActivate::128-255           86     24.09%     72.27% # Bytes accessed per row activation (Byte)
system.mem_ctrls.dram.bytesPerActivate::256-383           37     10.36%     82.63% # Bytes accessed per row activation (Byte)
system.mem_ctrls.dram.bytesPerActivate::384-511           23      6.44%     89.08% # Bytes accessed per row activation (Byte)
system.mem_ctrls.dram.bytesPerActivate::512-639           14      3.92%     93.00% # Bytes accessed per row activation (Byte)
system.mem_ctrls.dram.bytesPerActivate::640-767           11      3.08%     96.08% # Bytes accessed per row activation (Byte)
system.mem_ctrls.dram.bytesPerActivate::768-895            6      1.68%     97.76% # Bytes accessed per row activation (Byte)
system.mem_ctrls.dram.bytesPerActivate::896-1023            7      1.96%     99.72% # Bytes accessed per row activation (Byte)
system.mem_ctrls.dram.bytesPerActivate::1024-1151            1      0.28%    100.00% # Bytes accessed per row activation (Byte)
system.mem_ctrls.dram.bytesPerActivate::total          357                       # Bytes accessed per row activation (Byte)
system.mem_ctrls.dram.bytesRead                 34048                       # Total bytes read (Byte)
system.mem_ctrls.dram.bytesWritten              33664                       # Total bytes written (Byte)
system.mem_ctrls.dram.avgRdBW             1179.233194                       # Average DRAM read bandwidth in MiBytes/s ((Byte/Second))
system.mem_ctrls.dram.avgWrBW             1165.933571                       # Average DRAM write bandwidth in MiBytes/s ((Byte/Second))
system.mem_ctrls.dram.peakBW                 12800.00                       # Theoretical peak bandwidth in MiByte/s ((Byte/Second))
system.mem_ctrls.dram.busUtil                   18.32                       # Data bus utilization in percentage (Ratio)
system.mem_ctrls.dram.busUtilRead                9.21                       # Data bus utilization in percentage for reads (Ratio)
system.mem_ctrls.dram.busUtilWrite               9.11                       # Data bus utilization in percentage for writes (Ratio)
system.mem_ctrls.dram.pageHitRate               66.54                       # Row buffer hit rate, read and write combined (Ratio)
system.mem_ctrls.dram.power_state.pwrStateResidencyTicks::UNDEFINED     28873000                       # Cumulative time (in ticks) in various power states (Tick)
system.mem_ctrls.dram.rank0.actEnergy         1213800                       # Energy for activate commands per rank (pJ) (Joule)
system.mem_ctrls.dram.rank0.preEnergy          652740                       # Energy for precharge commands per rank (pJ) (Joule)
system.mem_ctrls.dram.rank0.readEnergy        1892100                       # Energy for read commands per rank (pJ) (Joule)
system.mem_ctrls.dram.rank0.writeEnergy       1085760                       # Energy for write commands per rank (pJ) (Joule)
system.mem_ctrls.dram.rank0.refreshEnergy 2458560.000000                       # Energy for refresh commands per rank (pJ) (Joule)
system.mem_ctrls.dram.rank0.actBackEnergy     12961230                       # Energy for active background per rank (pJ) (Joule)
system.mem_ctrls.dram.rank0.preBackEnergy       172800                       # Energy for precharge background per rank (pJ) (Joule)
system.mem_ctrls.dram.rank0.actPowerDownEnergy            0                       # Energy for active power-down per rank (pJ) (Joule)
system.mem_ctrls.dram.rank0.prePowerDownEnergy            0                       # Energy for precharge power-down per rank (pJ) (Joule)
system.mem_ctrls.dram.rank0.selfRefreshEnergy            0                       # Energy for self refresh per rank (pJ) (Joule)
system.mem_ctrls.dram.rank0.totalEnergy      20436990                       # Total energy per rank (pJ) (Joule)
system.mem_ctrls.dram.rank0.averagePower   707.823572                       # Core power per rank (mW) (Watt)
system.mem_ctrls.dram.rank0.totalIdleTime            0                       # Total Idle time Per DRAM Rank (Tick)
system.mem_ctrls.dram.rank0.pwrStateTime::IDLE       325250                       # Time in different power states (Tick)
system.mem_ctrls.dram.rank0.pwrStateTime::REF      1040000                       # Time in different power states (Tick)
system.mem_ctrls.dram.rank0.pwrStateTime::SREF            0                       # Time in different power states (Tick)
system.mem_ctrls.dram.rank0.pwrStateTime::PRE_PDN            0                       # Time in different power states (Tick)
system.mem_ctrls.dram.rank0.pwrStateTime::ACT     27507750                       # Time in different power states (Tick)
system.mem_ctrls.dram.rank0.pwrStateTime::ACT_PDN            0                       # Time in different power states (Tick)
system.mem_ctrls.dram.rank1.actEnergy         1313760                       # Energy for activate commands per rank (pJ) (Joule)
system.mem_ctrls.dram.rank1.preEnergy          702075                       # Energy for precharge commands per rank (pJ) (Joule)
system.mem_ctrls.dram.rank1.readEnergy        1913520                       # Energy for read commands per rank (pJ) (Joule)
system.mem_ctrls.dram.rank1.writeEnergy       1659960                       # Energy for write commands per rank (pJ) (Joule)
system.mem_ctrls.dram.rank1.refreshEnergy 2458560.000000                       # Energy for refresh commands per rank (pJ) (Joule)
system.mem_ctrls.dram.rank1.actBackEnergy     12801060                       # Energy for active background per rank (pJ) (Joule)
system.mem_ctrls.dram.rank1.preBackEnergy       307680                       # Energy for precharge background per rank (pJ) (Joule)
system.mem_ctrls.dram.rank1.actPowerDownEnergy            0                       # Energy for active power-down per rank (pJ) (Joule)
system.mem_ctrls.dram.rank1.prePowerDownEnergy            0                       # Energy for precharge power-down per rank (pJ) (Joule)
system.mem_ctrls.dram.rank1.selfRefreshEnergy            0                       # Energy for self refresh per rank (pJ) (Joule)
system.mem_ctrls.dram.rank1.totalEnergy      21156615                       # Total energy per rank (pJ) (Joule)
system.mem_ctrls.dram.rank1.averagePower   732.747376                       # Core power per rank (mW) (Watt)
system.mem_ctrls.dram.rank1.totalIdleTime            0                       # Total Idle time Per DRAM Rank (Tick)
system.mem_ctrls.dram.rank1.pwrStateTime::IDLE       689500                       # Time in different power states (Tick)
system.mem_ctrls.dram.rank1.pwrStateTime::REF      1040000                       # Time in different power states (Tick)
system.mem_ctrls.dram.rank1.pwrStateTime::SREF            0                       # Time in different power states (Tick)
system.mem_ctrls.dram.rank1.pwrStateTime::PRE_PDN            0                       # Time in different power states (Tick)
system.mem_ctrls.dram.rank1.pwrStateTime::ACT     27143500                       # Time in different power states (Tick)
system.mem_ctrls.dram.rank1.pwrStateTime::ACT_PDN            0                       # Time in different power states (Tick)
system.mem_ctrls.power_state.pwrStateResidencyTicks::UNDEFINED     28873000                       # Cumulative time (in ticks) in various power states (Tick)
system.membus.transDist::ReadResp                 509                       # Transaction distribution (Count)
system.membus.transDist::WritebackDirty           518                       # Transaction distribution (Count)
system.membus.transDist::CleanEvict               186                       # Transaction distribution (Count)
system.membus.transDist::ReadExReq                 26                       # Transaction distribution (Count)
system.membus.transDist::ReadExResp                26                       # Transaction distribution (Count)
system.membus.transDist::ReadSharedReq            506                       # Transaction distribution (Count)
system.membus.pktCount_system.l2.mem_side_port::system.mem_ctrls.port         1771                       # Packet count per connected requestor and responder (Count)
system.membus.pktCount::total                    1771                       # Packet count per connected requestor and responder (Count)
system.membus.pktSize_system.l2.mem_side_port::system.mem_ctrls.port        67392                       # Cumulative packet size per connected requestor and responder (Byte)
system.membus.pktSize::total                    67392                       # Cumulative packet size per connected requestor and responder (Byte)
system.membus.snoops                                0                       # Total snoops (Count)
system.membus.snoopTraffic                          0                       # Total snoop traffic (Byte)
system.membus.snoopFanout::samples                532                       # Request fanout histogram (Count)
system.membus.snoopFanout::mean                     0                       # Request fanout histogram (Count)
system.membus.snoopFanout::stdev                    0                       # Request fanout histogram (Count)
system.membus.snoopFanout::underflows               0      0.00%      0.00% # Request fanout histogram (Count)
system.membus.snoopFanout::0                      532    100.00%    100.00% # Request fanout histogram (Count)
system.membus.snoopFanout::1                        0      0.00%    100.00% # Request fanout histogram (Count)
system.membus.snoopFanout::overflows                0      0.00%    100.00% # Request fanout histogram (Count)
system.membus.snoopFanout::min_value                0                       # Request fanout histogram (Count)
system.membus.snoopFanout::max_value                0                       # Request fanout histogram (Count)
system.membus.snoopFanout::total                  532                       # Request fanout histogram (Count)
system.membus.power_state.pwrStateResidencyTicks::UNDEFINED     28873000                       # Cumulative time (in ticks) in various power states (Tick)
system.membus.reqLayer0.occupancy             3431000                       # Layer occupancy (ticks) (Tick)
system.membus.reqLayer0.utilization               0.1                       # Layer utilization (Ratio)
system.membus.respLayer1.occupancy            2869750                       # Layer occupancy (ticks) (Tick)
system.membus.respLayer1.utilization              0.1                       # Layer utilization (Ratio)
system.membus.snoop_filter.totRequests           1236                       # Total number of requests made to the snoop filter. (Count)
system.membus.snoop_filter.hitSingleRequests          704                       # Number of requests hitting in the snoop filter with a single holder of the requested data. (Count)
system.membus.snoop_filter.hitMultiRequests            0                       # Number of requests hitting in the snoop filter with multiple (>1) holders of the requested data. (Count)
system.membus.snoop_filter.totSnoops                0                       # Total number of snoops made to the snoop filter. (Count)
system.membus.snoop_filter.hitSingleSnoops            0                       # Number of snoops hitting in the snoop filter with a single holder of the requested data. (Count)
system.membus.snoop_filter.hitMultiSnoops            0                       # Number of snoops hitting in the snoop filter with multiple (>1) holders of the requested data. (Count)
system.tol2bus.transDist::ReadResp                532                       # Transaction distribution (Count)
system.tol2bus.transDist::WritebackDirty          563                       # Transaction distribution (Count)
system.tol2bus.transDist::WritebackClean          214                       # Transaction distribution (Count)
system.tol2bus.transDist::CleanEvict              488                       # Transaction distribution (Count)
system.tol2bus.transDist::ReadExReq                26                       # Transaction distribution (Count)
system.tol2bus.transDist::ReadExResp               26                       # Transaction distribution (Count)
system.tol2bus.transDist::ReadCleanReq            215                       # Transaction distribution (Count)
system.tol2bus.transDist::ReadSharedReq           315                       # Transaction distribution (Count)
system.tol2bus.pktCount_system.cpu.icache.mem_side_port::system.l2.cpu_side_port          643                       # Packet count per connected requestor and responder (Count)
system.tol2bus.pktCount_system.cpu.dcache.mem_side_port::system.l2.cpu_side_port         1029                       # Packet count per connected requestor and responder (Count)
system.tol2bus.pktCount::total                   1672                       # Packet count per connected requestor and responder (Count)
system.tol2bus.pktSize_system.cpu.icache.mem_side_port::system.l2.cpu_side_port        27392                       # Cumulative packet size per connected requestor and responder (Byte)
system.tol2bus.pktSize_system.cpu.dcache.mem_side_port::system.l2.cpu_side_port        24896                       # Cumulative packet size per connected requestor and responder (Byte)
system.tol2bus.pktSize::total                   52288                       # Cumulative packet size per connected requestor and responder (Byte)
system.tol2bus.snoops                             707                       # Total snoops (Count)
system.tol2bus.snoopTraffic                     33152                       # Total snoop traffic (Byte)
system.tol2bus.snoopFanout::samples              1263                       # Request fanout histogram (Count)
system.tol2bus.snoopFanout::mean             0.006334                       # Request fanout histogram (Count)
system.tol2bus.snoopFanout::stdev            0.079366                       # Request fanout histogram (Count)
system.tol2bus.snoopFanout::underflows              0      0.00%      0.00% # Request fanout histogram (Count)
system.tol2bus.snoopFanout::0                    1255     99.37%     99.37% # Request fanout histogram (Count)
system.tol2bus.snoopFanout::1                       8      0.63%    100.00% # Request fanout histogram (Count)
system.tol2bus.snoopFanout::2                       0      0.00%    100.00% # Request fanout histogram (Count)
system.tol2bus.snoopFanout::overflows               0      0.00%    100.00% # Request fanout histogram (Count)
system.tol2bus.snoopFanout::min_value               0                       # Request fanout histogram (Count)
system.tol2bus.snoopFanout::max_value               1                       # Request fanout histogram (Count)
system.tol2bus.snoopFanout::total                1263                       # Request fanout histogram (Count)
system.tol2bus.power_state.pwrStateResidencyTicks::UNDEFINED     28873000                       # Cumulative time (in ticks) in various power states (Tick)
system.tol2bus.reqLayer0.occupancy             816000                       # Layer occupancy (ticks) (Tick)
system.tol2bus.reqLayer0.utilization              0.0                       # Layer utilization (Ratio)
system.tol2bus.respLayer0.occupancy            321000                       # Layer occupancy (ticks) (Tick)
system.tol2bus.respLayer0.utilization             0.0                       # Layer utilization (Ratio)
system.tol2bus.respLayer1.occupancy            516000                       # Layer occupancy (ticks) (Tick)
system.tol2bus.respLayer1.utilization             0.0                       # Layer utilization (Ratio)
system.tol2bus.snoop_filter.totRequests          1114                       # Total number of requests made to the snoop filter. (Count)
system.tol2bus.snoop_filter.hitSingleRequests          558                       # Number of requests hitting in the snoop filter with a single holder of the requested data. (Count)
system.tol2bus.snoop_filter.hitMultiRequests            0                       # Number of requests hitting in the snoop filter with multiple (>1) holders of the requested data. (Count)
system.tol2bus.snoop_filter.totSnoops               8                       # Total number of snoops made to the snoop filter. (Count)
system.tol2bus.snoop_filter.hitSingleSnoops            8                       # Number of snoops hitting in the snoop filter with a single holder of the requested data. (Count)
system.tol2bus.snoop_filter.hitMultiSnoops            0                       # Number of snoops hitting in the snoop filter with multiple (>1) holders of the requested data. (Count)
system.voltage_domain.voltage                       1                       # Voltage in Volts (Volt)
system.workload.inst.arm                            0                       # number of arm instructions executed (Count)
system.workload.inst.quiesce                        0                       # number of quiesce instructions executed (Count)

---------- End Simulation Statistics   ----------
