
---------- Begin Simulation Statistics ----------
simSeconds                                   0.017420                       # Number of seconds simulated (Second)
simTicks                                  17419513000                       # Number of ticks simulated (Tick)
finalTick                                 17419513000                       # Number of ticks from beginning of simulation (restored from checkpoints and never reset) (Tick)
simFreq                                  1000000000000                       # The number of ticks per simulated second ((Tick/Second))
hostSeconds                                    147.51                       # Real time elapsed on the host (Second)
hostTickRate                                118092541                       # The number of ticks simulated per host second (ticks/s) ((Tick/Second))
hostMemory                                     680116                       # Number of bytes of host memory used (Byte)
simInsts                                     38955054                       # Number of instructions simulated (Count)
simOps                                       39224676                       # Number of ops (including micro ops) simulated (Count)
hostInstRate                                   264089                       # Simulator instruction rate (inst/s) ((Count/Second))
hostOpRate                                     265917                       # Simulator op (including micro ops) rate (op/s) ((Count/Second))
system.clk_domain.clock                          1000                       # Clock period in ticks (Tick)
system.cpu.numCycles                         34839027                       # Number of cpu cycles simulated (Cycle)
system.cpu.numWorkItemsStarted                      0                       # Number of work items this cpu started (Count)
system.cpu.numWorkItemsCompleted                    0                       # Number of work items this cpu completed (Count)
system.cpu.instsAdded                        40099531                       # Number of instructions added to the IQ (excludes non-spec) (Count)
system.cpu.nonSpecInstsAdded                      160                       # Number of non-speculative instructions added to the IQ (Count)
system.cpu.instsIssued                       42299915                       # Number of instructions issued (Count)
system.cpu.squashedInstsIssued                  10180                       # Number of squashed instructions issued (Count)
system.cpu.squashedInstsExamined               874938                       # Number of squashed instructions iterated over during squash; mainly for profiling (Count)
system.cpu.squashedOperandsExamined            750251                       # Number of squashed operands that are examined and possibly removed from graph (Count)
system.cpu.squashedNonSpecRemoved                  41                       # Number of squashed non-spec instructions that were removed (Count)
system.cpu.numIssuedDist::samples            34717510                       # Number of insts issued each cycle (Count)
system.cpu.numIssuedDist::mean               1.218403                       # Number of insts issued each cycle (Count)
system.cpu.numIssuedDist::stdev              2.212126                       # Number of insts issued each cycle (Count)
system.cpu.numIssuedDist::underflows                0      0.00%      0.00% # Number of insts issued each cycle (Count)
system.cpu.numIssuedDist::0                  22798084     65.67%     65.67% # Number of insts issued each cycle (Count)
system.cpu.numIssuedDist::1                   3830889     11.03%     76.70% # Number of insts issued each cycle (Count)
system.cpu.numIssuedDist::2                   1495434      4.31%     81.01% # Number of insts issued each cycle (Count)
system.cpu.numIssuedDist::3                   1081677      3.12%     84.12% # Number of insts issued each cycle (Count)
system.cpu.numIssuedDist::4                   1549601      4.46%     88.59% # Number of insts issued each cycle (Count)
system.cpu.numIssuedDist::5                   1109098      3.19%     91.78% # Number of insts issued each cycle (Count)
system.cpu.numIssuedDist::6                    886951      2.55%     94.34% # Number of insts issued each cycle (Count)
system.cpu.numIssuedDist::7                    558681      1.61%     95.95% # Number of insts issued each cycle (Count)
system.cpu.numIssuedDist::8                   1407095      4.05%    100.00% # Number of insts issued each cycle (Count)
system.cpu.numIssuedDist::overflows                 0      0.00%    100.00% # Number of insts issued each cycle (Count)
system.cpu.numIssuedDist::min_value                 0                       # Number of insts issued each cycle (Count)
system.cpu.numIssuedDist::max_value                 8                       # Number of insts issued each cycle (Count)
system.cpu.numIssuedDist::total              34717510                       # Number of insts issued each cycle (Count)
system.cpu.statFuBusy::No_OpClass                   0      0.00%      0.00% # attempts to use FU when none available (Count)
system.cpu.statFuBusy::IntAlu                   75696      4.39%      4.39% # attempts to use FU when none available (Count)
system.cpu.statFuBusy::IntMult                      3      0.00%      4.40% # attempts to use FU when none available (Count)
system.cpu.statFuBusy::IntDiv                    1171      0.07%      4.46% # attempts to use FU when none available (Count)
system.cpu.statFuBusy::FloatAdd                     0      0.00%      4.46% # attempts to use FU when none available (Count)
system.cpu.statFuBusy::FloatCmp                     0      0.00%      4.46% # attempts to use FU when none available (Count)
system.cpu.statFuBusy::FloatCvt                     0      0.00%      4.46% # attempts to use FU when none available (Count)
system.cpu.statFuBusy::FloatMult                    0      0.00%      4.46% # attempts to use FU when none available (Count)
system.cpu.statFuBusy::FloatMultAcc                 0      0.00%      4.46% # attempts to use FU when none available (Count)
system.cpu.statFuBusy::FloatDiv                     0      0.00%      4.46% # attempts to use FU when none available (Count)
system.cpu.statFuBusy::FloatMisc                    0      0.00%      4.46% # attempts to use FU when none available (Count)
system.cpu.statFuBusy::FloatSqrt                    0      0.00%      4.46% # attempts to use FU when none available (Count)
system.cpu.statFuBusy::SimdAdd                      0      0.00%      4.46% # attempts to use FU when none available (Count)
system.cpu.statFuBusy::SimdAddAcc                   0      0.00%      4.46% # attempts to use FU when none available (Count)
system.cpu.statFuBusy::SimdAlu                     20      0.00%      4.46% # attempts to use FU when none available (Count)
system.cpu.statFuBusy::SimdCmp                     18      0.00%      4.47% # attempts to use FU when none available (Count)
system.cpu.statFuBusy::SimdCvt                      0      0.00%      4.47% # attempts to use FU when none available (Count)
system.cpu.statFuBusy::SimdMisc                     0      0.00%      4.47% # attempts to use FU when none available (Count)
system.cpu.statFuBusy::SimdMult                761054     44.19%     48.65% # attempts to use FU when none available (Count)
system.cpu.statFuBusy::SimdMultAcc             781974     45.40%     94.05% # attempts to use FU when none available (Count)
system.cpu.statFuBusy::SimdShift                    0      0.00%     94.05% # attempts to use FU when none available (Count)
system.cpu.statFuBusy::SimdShiftAcc                 0      0.00%     94.05% # attempts to use FU when none available (Count)
system.cpu.statFuBusy::SimdDiv                      0      0.00%     94.05% # attempts to use FU when none available (Count)
system.cpu.statFuBusy::SimdSqrt                     0      0.00%     94.05% # attempts to use FU when none available (Count)
system.cpu.statFuBusy::SimdFloatAdd                 0      0.00%     94.05% # attempts to use FU when none available (Count)
system.cpu.statFuBusy::SimdFloatAlu                 0      0.00%     94.05% # attempts to use FU when none available (Count)
system.cpu.statFuBusy::SimdFloatCmp                 0      0.00%     94.05% # attempts to use FU when none available (Count)
system.cpu.statFuBusy::SimdFloatCvt                 0      0.00%     94.05% # attempts to use FU when none available (Count)
system.cpu.statFuBusy::SimdFloatDiv                 0      0.00%     94.05% # attempts to use FU when none available (Count)
system.cpu.statFuBusy::SimdFloatMisc                0      0.00%     94.05% # attempts to use FU when none available (Count)
system.cpu.statFuBusy::SimdFloatMult                0      0.00%     94.05% # attempts to use FU when none available (Count)
system.cpu.statFuBusy::SimdFloatMultAcc             0      0.00%     94.05% # attempts to use FU when none available (Count)
system.cpu.statFuBusy::SimdFloatSqrt                0      0.00%     94.05% # attempts to use FU when none available (Count)
system.cpu.statFuBusy::SimdReduceAdd                0      0.00%     94.05% # attempts to use FU when none available (Count)
system.cpu.statFuBusy::SimdReduceAlu                0      0.00%     94.05% # attempts to use FU when none available (Count)
system.cpu.statFuBusy::SimdReduceCmp                0      0.00%     94.05% # attempts to use FU when none available (Count)
system.cpu.statFuBusy::SimdFloatReduceAdd            0      0.00%     94.05% # attempts to use FU when none available (Count)
system.cpu.statFuBusy::SimdFloatReduceCmp            0      0.00%     94.05% # attempts to use FU when none available (Count)
system.cpu.statFuBusy::SimdAes                      0      0.00%     94.05% # attempts to use FU when none available (Count)
system.cpu.statFuBusy::SimdAesMix                   0      0.00%     94.05% # attempts to use FU when none available (Count)
system.cpu.statFuBusy::SimdSha1Hash                 0      0.00%     94.05% # attempts to use FU when none available (Count)
system.cpu.statFuBusy::SimdSha1Hash2                0      0.00%     94.05% # attempts to use FU when none available (Count)
system.cpu.statFuBusy::SimdSha256Hash               0      0.00%     94.05% # attempts to use FU when none available (Count)
system.cpu.statFuBusy::SimdSha256Hash2              0      0.00%     94.05% # attempts to use FU when none available (Count)
system.cpu.statFuBusy::SimdShaSigma2                0      0.00%     94.05% # attempts to use FU when none available (Count)
system.cpu.statFuBusy::SimdShaSigma3                0      0.00%     94.05% # attempts to use FU when none available (Count)
system.cpu.statFuBusy::SimdPredAlu                  0      0.00%     94.05% # attempts to use FU when none available (Count)
system.cpu.statFuBusy::MemRead                  87574      5.08%     99.14% # attempts to use FU when none available (Count)
system.cpu.statFuBusy::MemWrite                 14846      0.86%    100.00% # attempts to use FU when none available (Count)
system.cpu.statFuBusy::FloatMemRead                 0      0.00%    100.00% # attempts to use FU when none available (Count)
system.cpu.statFuBusy::FloatMemWrite                0      0.00%    100.00% # attempts to use FU when none available (Count)
system.cpu.statFuBusy::IprAccess                    0      0.00%    100.00% # attempts to use FU when none available (Count)
system.cpu.statFuBusy::InstPrefetch                 0      0.00%    100.00% # attempts to use FU when none available (Count)
system.cpu.statIssuedInstType_0::No_OpClass          482      0.00%      0.00% # Number of instructions issued per FU type, per thread (Count)
system.cpu.statIssuedInstType_0::IntAlu      25982583     61.42%     61.43% # Number of instructions issued per FU type, per thread (Count)
system.cpu.statIssuedInstType_0::IntMult         7607      0.02%     61.44% # Number of instructions issued per FU type, per thread (Count)
system.cpu.statIssuedInstType_0::IntDiv          2690      0.01%     61.45% # Number of instructions issued per FU type, per thread (Count)
system.cpu.statIssuedInstType_0::FloatAdd            0      0.00%     61.45% # Number of instructions issued per FU type, per thread (Count)
system.cpu.statIssuedInstType_0::FloatCmp            0      0.00%     61.45% # Number of instructions issued per FU type, per thread (Count)
system.cpu.statIssuedInstType_0::FloatCvt            0      0.00%     61.45% # Number of instructions issued per FU type, per thread (Count)
system.cpu.statIssuedInstType_0::FloatMult            0      0.00%     61.45% # Number of instructions issued per FU type, per thread (Count)
system.cpu.statIssuedInstType_0::FloatMultAcc            0      0.00%     61.45% # Number of instructions issued per FU type, per thread (Count)
system.cpu.statIssuedInstType_0::FloatDiv            0      0.00%     61.45% # Number of instructions issued per FU type, per thread (Count)
system.cpu.statIssuedInstType_0::FloatMisc            2      0.00%     61.45% # Number of instructions issued per FU type, per thread (Count)
system.cpu.statIssuedInstType_0::FloatSqrt            0      0.00%     61.45% # Number of instructions issued per FU type, per thread (Count)
system.cpu.statIssuedInstType_0::SimdAdd      1575057      3.72%     65.17% # Number of instructions issued per FU type, per thread (Count)
system.cpu.statIssuedInstType_0::SimdAddAcc            0      0.00%     65.17% # Number of instructions issued per FU type, per thread (Count)
system.cpu.statIssuedInstType_0::SimdAlu          609      0.00%     65.18% # Number of instructions issued per FU type, per thread (Count)
system.cpu.statIssuedInstType_0::SimdCmp          132      0.00%     65.18% # Number of instructions issued per FU type, per thread (Count)
system.cpu.statIssuedInstType_0::SimdCvt            0      0.00%     65.18% # Number of instructions issued per FU type, per thread (Count)
system.cpu.statIssuedInstType_0::SimdMisc      1575849      3.73%     68.90% # Number of instructions issued per FU type, per thread (Count)
system.cpu.statIssuedInstType_0::SimdMult      1620315      3.83%     72.73% # Number of instructions issued per FU type, per thread (Count)
system.cpu.statIssuedInstType_0::SimdMultAcc      4775610     11.29%     84.02% # Number of instructions issued per FU type, per thread (Count)
system.cpu.statIssuedInstType_0::SimdShift            0      0.00%     84.02% # Number of instructions issued per FU type, per thread (Count)
system.cpu.statIssuedInstType_0::SimdShiftAcc            0      0.00%     84.02% # Number of instructions issued per FU type, per thread (Count)
system.cpu.statIssuedInstType_0::SimdDiv            0      0.00%     84.02% # Number of instructions issued per FU type, per thread (Count)
system.cpu.statIssuedInstType_0::SimdSqrt            0      0.00%     84.02% # Number of instructions issued per FU type, per thread (Count)
system.cpu.statIssuedInstType_0::SimdFloatAdd            0      0.00%     84.02% # Number of instructions issued per FU type, per thread (Count)
system.cpu.statIssuedInstType_0::SimdFloatAlu            0      0.00%     84.02% # Number of instructions issued per FU type, per thread (Count)
system.cpu.statIssuedInstType_0::SimdFloatCmp            0      0.00%     84.02% # Number of instructions issued per FU type, per thread (Count)
system.cpu.statIssuedInstType_0::SimdFloatCvt            0      0.00%     84.02% # Number of instructions issued per FU type, per thread (Count)
system.cpu.statIssuedInstType_0::SimdFloatDiv            0      0.00%     84.02% # Number of instructions issued per FU type, per thread (Count)
system.cpu.statIssuedInstType_0::SimdFloatMisc            0      0.00%     84.02% # Number of instructions issued per FU type, per thread (Count)
system.cpu.statIssuedInstType_0::SimdFloatMult            0      0.00%     84.02% # Number of instructions issued per FU type, per thread (Count)
system.cpu.statIssuedInstType_0::SimdFloatMultAcc            0      0.00%     84.02% # Number of instructions issued per FU type, per thread (Count)
system.cpu.statIssuedInstType_0::SimdFloatSqrt            0      0.00%     84.02% # Number of instructions issued per FU type, per thread (Count)
system.cpu.statIssuedInstType_0::SimdReduceAdd            0      0.00%     84.02% # Number of instructions issued per FU type, per thread (Count)
system.cpu.statIssuedInstType_0::SimdReduceAlu            0      0.00%     84.02% # Number of instructions issued per FU type, per thread (Count)
system.cpu.statIssuedInstType_0::SimdReduceCmp            0      0.00%     84.02% # Number of instructions issued per FU type, per thread (Count)
system.cpu.statIssuedInstType_0::SimdFloatReduceAdd            0      0.00%     84.02% # Number of instructions issued per FU type, per thread (Count)
system.cpu.statIssuedInstType_0::SimdFloatReduceCmp            0      0.00%     84.02% # Number of instructions issued per FU type, per thread (Count)
system.cpu.statIssuedInstType_0::SimdAes            0      0.00%     84.02% # Number of instructions issued per FU type, per thread (Count)
system.cpu.statIssuedInstType_0::SimdAesMix            0      0.00%     84.02% # Number of instructions issued per FU type, per thread (Count)
system.cpu.statIssuedInstType_0::SimdSha1Hash            0      0.00%     84.02% # Number of instructions issued per FU type, per thread (Count)
system.cpu.statIssuedInstType_0::SimdSha1Hash2            0      0.00%     84.02% # Number of instructions issued per FU type, per thread (Count)
system.cpu.statIssuedInstType_0::SimdSha256Hash            0      0.00%     84.02% # Number of instructions issued per FU type, per thread (Count)
system.cpu.statIssuedInstType_0::SimdSha256Hash2            0      0.00%     84.02% # Number of instructions issued per FU type, per thread (Count)
system.cpu.statIssuedInstType_0::SimdShaSigma2            0      0.00%     84.02% # Number of instructions issued per FU type, per thread (Count)
system.cpu.statIssuedInstType_0::SimdShaSigma3            0      0.00%     84.02% # Number of instructions issued per FU type, per thread (Count)
system.cpu.statIssuedInstType_0::SimdPredAlu            0      0.00%     84.02% # Number of instructions issued per FU type, per thread (Count)
system.cpu.statIssuedInstType_0::MemRead      4933243     11.66%     95.68% # Number of instructions issued per FU type, per thread (Count)
system.cpu.statIssuedInstType_0::MemWrite      1825736      4.32%    100.00% # Number of instructions issued per FU type, per thread (Count)
system.cpu.statIssuedInstType_0::FloatMemRead            0      0.00%    100.00% # Number of instructions issued per FU type, per thread (Count)
system.cpu.statIssuedInstType_0::FloatMemWrite            0      0.00%    100.00% # Number of instructions issued per FU type, per thread (Count)
system.cpu.statIssuedInstType_0::IprAccess            0      0.00%    100.00% # Number of instructions issued per FU type, per thread (Count)
system.cpu.statIssuedInstType_0::InstPrefetch            0      0.00%    100.00% # Number of instructions issued per FU type, per thread (Count)
system.cpu.statIssuedInstType_0::total       42299915                       # Number of instructions issued per FU type, per thread (Count)
system.cpu.issueRate                         1.214153                       # Inst issue rate ((Count/Cycle))
system.cpu.fuBusy                             1722356                       # FU busy when requested (Count)
system.cpu.fuBusyRate                        0.040718                       # FU busy rate (busy events/executed inst) ((Count/Count))
system.cpu.intInstQueueReads                 99920876                       # Number of integer instruction queue reads (Count)
system.cpu.intInstQueueWrites                31155968                       # Number of integer instruction queue writes (Count)
system.cpu.intInstQueueWakeupAccesses        30024190                       # Number of integer instruction queue wakeup accesses (Count)
system.cpu.fpInstQueueReads                         0                       # Number of floating instruction queue reads (Count)
system.cpu.fpInstQueueWrites                        0                       # Number of floating instruction queue writes (Count)
system.cpu.fpInstQueueWakeupAccesses                0                       # Number of floating instruction queue wakeup accesses (Count)
system.cpu.vecInstQueueReads                 21128993                       # Number of vector instruction queue reads (Count)
system.cpu.vecInstQueueWrites                 9818925                       # Number of vector instruction queue writes (Count)
system.cpu.vecInstQueueWakeupAccesses         9686497                       # Number of vector instruction queue wakeup accesses (Count)
system.cpu.intAluAccesses                    32686723                       # Number of integer alu accesses (Count)
system.cpu.fpAluAccesses                            0                       # Number of floating point alu accesses (Count)
system.cpu.vecAluAccesses                    11335066                       # Number of vector alu accesses (Count)
system.cpu.numInsts                          42261209                       # Number of executed instructions (Count)
system.cpu.numLoadInsts                       4919515                       # Number of load instructions executed (Count)
system.cpu.numSquashedInsts                     38699                       # Number of squashed instructions skipped in execute (Count)
system.cpu.numSwp                                   0                       # Number of swp insts executed (Count)
system.cpu.numNop                                 368                       # Number of nop insts executed (Count)
system.cpu.numRefs                            6743690                       # Number of memory reference insts executed (Count)
system.cpu.numBranches                        8526887                       # Number of branches executed (Count)
system.cpu.numStoreInsts                      1824175                       # Number of stores executed (Count)
system.cpu.numRate                           1.213042                       # Inst execution rate ((Count/Cycle))
system.cpu.timesIdled                            1306                       # Number of times that the entire CPU went into an idle state and unscheduled itself (Count)
system.cpu.idleCycles                          121517                       # Total number of cycles that the CPU has spent unscheduled due to idling (Cycle)
system.cpu.committedInsts                    38955054                       # Number of Instructions Simulated (Count)
system.cpu.committedOps                      39224676                       # Number of Ops (including micro ops) Simulated (Count)
system.cpu.cpi                               0.894339                       # CPI: Cycles Per Instruction ((Cycle/Count))
system.cpu.totalCpi                          0.894339                       # CPI: Total CPI of All Threads ((Cycle/Count))
system.cpu.ipc                               1.118144                       # IPC: Instructions Per Cycle ((Count/Cycle))
system.cpu.totalIpc                          1.118144                       # IPC: Total IPC of All Threads ((Count/Cycle))
system.cpu.intRegfileReads                   43594543                       # Number of integer regfile reads (Count)
system.cpu.intRegfileWrites                  11031513                       # Number of integer regfile writes (Count)
system.cpu.vecRegfileReads                   28829544                       # number of vector regfile reads (Count)
system.cpu.ccRegfileReads                    30900885                       # number of cc regfile reads (Count)
system.cpu.ccRegfileWrites                   30919068                       # number of cc regfile writes (Count)
system.cpu.miscRegfileReads                  20048142                       # number of misc regfile reads (Count)
system.cpu.miscRegfileWrites                       61                       # number of misc regfile writes (Count)
system.cpu.MemDepUnit__0.insertedLoads        2448416                       # Number of loads inserted to the mem dependence unit. (Count)
system.cpu.MemDepUnit__0.insertedStores       1844769                       # Number of stores inserted to the mem dependence unit. (Count)
system.cpu.MemDepUnit__0.conflictingLoads        50221                       # Number of conflicting loads. (Count)
system.cpu.MemDepUnit__0.conflictingStores        23708                       # Number of conflicting stores. (Count)
system.cpu.MemDepUnit__1.insertedLoads              0                       # Number of loads inserted to the mem dependence unit. (Count)
system.cpu.MemDepUnit__1.insertedStores             0                       # Number of stores inserted to the mem dependence unit. (Count)
system.cpu.MemDepUnit__1.conflictingLoads            0                       # Number of conflicting loads. (Count)
system.cpu.MemDepUnit__1.conflictingStores            0                       # Number of conflicting stores. (Count)
system.cpu.MemDepUnit__2.insertedLoads              0                       # Number of loads inserted to the mem dependence unit. (Count)
system.cpu.MemDepUnit__2.insertedStores             0                       # Number of stores inserted to the mem dependence unit. (Count)
system.cpu.MemDepUnit__2.conflictingLoads            0                       # Number of conflicting loads. (Count)
system.cpu.MemDepUnit__2.conflictingStores            0                       # Number of conflicting stores. (Count)
system.cpu.MemDepUnit__3.insertedLoads              0                       # Number of loads inserted to the mem dependence unit. (Count)
system.cpu.MemDepUnit__3.insertedStores             0                       # Number of stores inserted to the mem dependence unit. (Count)
system.cpu.MemDepUnit__3.conflictingLoads            0                       # Number of conflicting loads. (Count)
system.cpu.MemDepUnit__3.conflictingStores            0                       # Number of conflicting stores. (Count)
system.cpu.branchPred.lookups                 8734735                       # Number of BP lookups (Count)
system.cpu.branchPred.condPredicted           8661788                       # Number of conditional branches predicted (Count)
system.cpu.branchPred.condIncorrect             22726                       # Number of conditional branches incorrect (Count)
system.cpu.branchPred.BTBLookups               519235                       # Number of BTB lookups (Count)
system.cpu.branchPred.BTBUpdates                11586                       # Number of BTB updates (Count)
system.cpu.branchPred.BTBHits                  509207                       # Number of BTB hits (Count)
system.cpu.branchPred.BTBHitRatio            0.980687                       # BTB Hit Ratio (Ratio)
system.cpu.branchPred.RASUsed                   17122                       # Number of times the RAS was used to get a target. (Count)
system.cpu.branchPred.RASIncorrect                 31                       # Number of incorrect RAS predictions. (Count)
system.cpu.branchPred.indirectLookups            6039                       # Number of indirect predictor lookups. (Count)
system.cpu.branchPred.indirectHits               1321                       # Number of indirect target hits. (Count)
system.cpu.branchPred.indirectMisses             4718                       # Number of indirect misses. (Count)
system.cpu.branchPred.indirectMispredicted          582                       # Number of mispredicted indirect branches. (Count)
system.cpu.commit.commitSquashedInsts          832668                       # The number of squashed insts skipped by commit (Count)
system.cpu.commit.commitNonSpecStalls             119                       # The number of times commit has been forced to stall to communicate backwards (Count)
system.cpu.commit.branchMispredicts             22393                       # The number of times a branch was mispredicted (Count)
system.cpu.commit.numCommittedDist::samples     34592017                       # Number of insts commited each cycle (Count)
system.cpu.commit.numCommittedDist::mean     1.133926                       # Number of insts commited each cycle (Count)
system.cpu.commit.numCommittedDist::stdev     2.695875                       # Number of insts commited each cycle (Count)
system.cpu.commit.numCommittedDist::underflows            0      0.00%      0.00% # Number of insts commited each cycle (Count)
system.cpu.commit.numCommittedDist::0        28480439     82.33%     82.33% # Number of insts commited each cycle (Count)
system.cpu.commit.numCommittedDist::1          685470      1.98%     84.31% # Number of insts commited each cycle (Count)
system.cpu.commit.numCommittedDist::2          509622      1.47%     85.79% # Number of insts commited each cycle (Count)
system.cpu.commit.numCommittedDist::3          176905      0.51%     86.30% # Number of insts commited each cycle (Count)
system.cpu.commit.numCommittedDist::4          113378      0.33%     86.63% # Number of insts commited each cycle (Count)
system.cpu.commit.numCommittedDist::5          113541      0.33%     86.95% # Number of insts commited each cycle (Count)
system.cpu.commit.numCommittedDist::6           51116      0.15%     87.10% # Number of insts commited each cycle (Count)
system.cpu.commit.numCommittedDist::7           30928      0.09%     87.19% # Number of insts commited each cycle (Count)
system.cpu.commit.numCommittedDist::8         4430618     12.81%    100.00% # Number of insts commited each cycle (Count)
system.cpu.commit.numCommittedDist::overflows            0      0.00%    100.00% # Number of insts commited each cycle (Count)
system.cpu.commit.numCommittedDist::min_value            0                       # Number of insts commited each cycle (Count)
system.cpu.commit.numCommittedDist::max_value            8                       # Number of insts commited each cycle (Count)
system.cpu.commit.numCommittedDist::total     34592017                       # Number of insts commited each cycle (Count)
system.cpu.commit.instsCommitted             38955160                       # Number of instructions committed (Count)
system.cpu.commit.opsCommitted               39224782                       # Number of ops (including micro ops) committed (Count)
system.cpu.commit.memRefs                     4113888                       # Number of memory references committed (Count)
system.cpu.commit.loads                       2321128                       # Number of loads committed (Count)
system.cpu.commit.amos                             30                       # Number of atomic instructions committed (Count)
system.cpu.commit.membars                          38                       # Number of memory barriers committed (Count)
system.cpu.commit.branches                    8431371                       # Number of branches committed (Count)
system.cpu.commit.vectorInstructions          9644637                       # Number of committed Vector instructions. (Count)
system.cpu.commit.floating                          0                       # Number of committed floating point instructions. (Count)
system.cpu.commit.integer                    24298183                       # Number of committed integer instructions. (Count)
system.cpu.commit.functionCalls                 10803                       # Number of function calls committed. (Count)
system.cpu.commit.committedInstType_0::No_OpClass           54      0.00%      0.00% # Class of committed instruction (Count)
system.cpu.commit.committedInstType_0::IntAlu     25595677     65.25%     65.25% # Class of committed instruction (Count)
system.cpu.commit.committedInstType_0::IntMult         7035      0.02%     65.27% # Class of committed instruction (Count)
system.cpu.commit.committedInstType_0::IntDiv         2554      0.01%     65.28% # Class of committed instruction (Count)
system.cpu.commit.committedInstType_0::FloatAdd            0      0.00%     65.28% # Class of committed instruction (Count)
system.cpu.commit.committedInstType_0::FloatCmp            0      0.00%     65.28% # Class of committed instruction (Count)
system.cpu.commit.committedInstType_0::FloatCvt            0      0.00%     65.28% # Class of committed instruction (Count)
system.cpu.commit.committedInstType_0::FloatMult            0      0.00%     65.28% # Class of committed instruction (Count)
system.cpu.commit.committedInstType_0::FloatMultAcc            0      0.00%     65.28% # Class of committed instruction (Count)
system.cpu.commit.committedInstType_0::FloatDiv            0      0.00%     65.28% # Class of committed instruction (Count)
system.cpu.commit.committedInstType_0::FloatMisc            2      0.00%     65.28% # Class of committed instruction (Count)
system.cpu.commit.committedInstType_0::FloatSqrt            0      0.00%     65.28% # Class of committed instruction (Count)
system.cpu.commit.committedInstType_0::SimdAdd      1570063      4.00%     69.28% # Class of committed instruction (Count)
system.cpu.commit.committedInstType_0::SimdAddAcc            0      0.00%     69.28% # Class of committed instruction (Count)
system.cpu.commit.committedInstType_0::SimdAlu          505      0.00%     69.28% # Class of committed instruction (Count)
system.cpu.commit.committedInstType_0::SimdCmp           97      0.00%     69.28% # Class of committed instruction (Count)
system.cpu.commit.committedInstType_0::SimdCvt            0      0.00%     69.28% # Class of committed instruction (Count)
system.cpu.commit.committedInstType_0::SimdMisc      1570107      4.00%     73.29% # Class of committed instruction (Count)
system.cpu.commit.committedInstType_0::SimdMult      1612416      4.11%     77.40% # Class of committed instruction (Count)
system.cpu.commit.committedInstType_0::SimdMultAcc      4752384     12.12%     89.51% # Class of committed instruction (Count)
system.cpu.commit.committedInstType_0::SimdShift            0      0.00%     89.51% # Class of committed instruction (Count)
system.cpu.commit.committedInstType_0::SimdShiftAcc            0      0.00%     89.51% # Class of committed instruction (Count)
system.cpu.commit.committedInstType_0::SimdDiv            0      0.00%     89.51% # Class of committed instruction (Count)
system.cpu.commit.committedInstType_0::SimdSqrt            0      0.00%     89.51% # Class of committed instruction (Count)
system.cpu.commit.committedInstType_0::SimdFloatAdd            0      0.00%     89.51% # Class of committed instruction (Count)
system.cpu.commit.committedInstType_0::SimdFloatAlu            0      0.00%     89.51% # Class of committed instruction (Count)
system.cpu.commit.committedInstType_0::SimdFloatCmp            0      0.00%     89.51% # Class of committed instruction (Count)
system.cpu.commit.committedInstType_0::SimdFloatCvt            0      0.00%     89.51% # Class of committed instruction (Count)
system.cpu.commit.committedInstType_0::SimdFloatDiv            0      0.00%     89.51% # Class of committed instruction (Count)
system.cpu.commit.committedInstType_0::SimdFloatMisc            0      0.00%     89.51% # Class of committed instruction (Count)
system.cpu.commit.committedInstType_0::SimdFloatMult            0      0.00%     89.51% # Class of committed instruction (Count)
system.cpu.commit.committedInstType_0::SimdFloatMultAcc            0      0.00%     89.51% # Class of committed instruction (Count)
system.cpu.commit.committedInstType_0::SimdFloatSqrt            0      0.00%     89.51% # Class of committed instruction (Count)
system.cpu.commit.committedInstType_0::SimdReduceAdd            0      0.00%     89.51% # Class of committed instruction (Count)
system.cpu.commit.committedInstType_0::SimdReduceAlu            0      0.00%     89.51% # Class of committed instruction (Count)
system.cpu.commit.committedInstType_0::SimdReduceCmp            0      0.00%     89.51% # Class of committed instruction (Count)
system.cpu.commit.committedInstType_0::SimdFloatReduceAdd            0      0.00%     89.51% # Class of committed instruction (Count)
system.cpu.commit.committedInstType_0::SimdFloatReduceCmp            0      0.00%     89.51% # Class of committed instruction (Count)
system.cpu.commit.committedInstType_0::SimdAes            0      0.00%     89.51% # Class of committed instruction (Count)
system.cpu.commit.committedInstType_0::SimdAesMix            0      0.00%     89.51% # Class of committed instruction (Count)
system.cpu.commit.committedInstType_0::SimdSha1Hash            0      0.00%     89.51% # Class of committed instruction (Count)
system.cpu.commit.committedInstType_0::SimdSha1Hash2            0      0.00%     89.51% # Class of committed instruction (Count)
system.cpu.commit.committedInstType_0::SimdSha256Hash            0      0.00%     89.51% # Class of committed instruction (Count)
system.cpu.commit.committedInstType_0::SimdSha256Hash2            0      0.00%     89.51% # Class of committed instruction (Count)
system.cpu.commit.committedInstType_0::SimdShaSigma2            0      0.00%     89.51% # Class of committed instruction (Count)
system.cpu.commit.committedInstType_0::SimdShaSigma3            0      0.00%     89.51% # Class of committed instruction (Count)
system.cpu.commit.committedInstType_0::SimdPredAlu            0      0.00%     89.51% # Class of committed instruction (Count)
system.cpu.commit.committedInstType_0::MemRead      2321128      5.92%     95.43% # Class of committed instruction (Count)
system.cpu.commit.committedInstType_0::MemWrite      1792760      4.57%    100.00% # Class of committed instruction (Count)
system.cpu.commit.committedInstType_0::FloatMemRead            0      0.00%    100.00% # Class of committed instruction (Count)
system.cpu.commit.committedInstType_0::FloatMemWrite            0      0.00%    100.00% # Class of committed instruction (Count)
system.cpu.commit.committedInstType_0::IprAccess            0      0.00%    100.00% # Class of committed instruction (Count)
system.cpu.commit.committedInstType_0::InstPrefetch            0      0.00%    100.00% # Class of committed instruction (Count)
system.cpu.commit.committedInstType_0::total     39224782                       # Class of committed instruction (Count)
system.cpu.commit.commitEligibleSamples       4430618                       # number cycles where commit BW limit reached (Cycle)
system.cpu.dcache.demandHits::cpu.data        2408762                       # number of demand (read+write) hits (Count)
system.cpu.dcache.demandHits::total           2408762                       # number of demand (read+write) hits (Count)
system.cpu.dcache.overallHits::cpu.data       2408762                       # number of overall hits (Count)
system.cpu.dcache.overallHits::total          2408762                       # number of overall hits (Count)
system.cpu.dcache.demandMisses::cpu.data      1737664                       # number of demand (read+write) misses (Count)
system.cpu.dcache.demandMisses::total         1737664                       # number of demand (read+write) misses (Count)
system.cpu.dcache.overallMisses::cpu.data      1737664                       # number of overall misses (Count)
system.cpu.dcache.overallMisses::total        1737664                       # number of overall misses (Count)
system.cpu.dcache.demandMissLatency::cpu.data  60229016993                       # number of demand (read+write) miss ticks (Tick)
system.cpu.dcache.demandMissLatency::total  60229016993                       # number of demand (read+write) miss ticks (Tick)
system.cpu.dcache.overallMissLatency::cpu.data  60229016993                       # number of overall miss ticks (Tick)
system.cpu.dcache.overallMissLatency::total  60229016993                       # number of overall miss ticks (Tick)
system.cpu.dcache.demandAccesses::cpu.data      4146426                       # number of demand (read+write) accesses (Count)
system.cpu.dcache.demandAccesses::total       4146426                       # number of demand (read+write) accesses (Count)
system.cpu.dcache.overallAccesses::cpu.data      4146426                       # number of overall (read+write) accesses (Count)
system.cpu.dcache.overallAccesses::total      4146426                       # number of overall (read+write) accesses (Count)
system.cpu.dcache.demandMissRate::cpu.data     0.419075                       # miss rate for demand accesses (Ratio)
system.cpu.dcache.demandMissRate::total      0.419075                       # miss rate for demand accesses (Ratio)
system.cpu.dcache.overallMissRate::cpu.data     0.419075                       # miss rate for overall accesses (Ratio)
system.cpu.dcache.overallMissRate::total     0.419075                       # miss rate for overall accesses (Ratio)
system.cpu.dcache.demandAvgMissLatency::cpu.data 34660.910851                       # average overall miss latency in ticks ((Tick/Count))
system.cpu.dcache.demandAvgMissLatency::total 34660.910851                       # average overall miss latency in ticks ((Tick/Count))
system.cpu.dcache.overallAvgMissLatency::cpu.data 34660.910851                       # average overall miss latency ((Tick/Count))
system.cpu.dcache.overallAvgMissLatency::total 34660.910851                       # average overall miss latency ((Tick/Count))
system.cpu.dcache.blockedCycles::no_mshrs     15507350                       # number of cycles access was blocked (Cycle)
system.cpu.dcache.blockedCycles::no_targets          916                       # number of cycles access was blocked (Cycle)
system.cpu.dcache.blockedCauses::no_mshrs      1329409                       # number of times access was blocked (Count)
system.cpu.dcache.blockedCauses::no_targets           10                       # number of times access was blocked (Count)
system.cpu.dcache.avgBlocked::no_mshrs      11.664845                       # average number of cycles each access was blocked ((Cycle/Count))
system.cpu.dcache.avgBlocked::no_targets    91.600000                       # average number of cycles each access was blocked ((Cycle/Count))
system.cpu.dcache.writebacks::writebacks      1564624                       # number of writebacks (Count)
system.cpu.dcache.writebacks::total           1564624                       # number of writebacks (Count)
system.cpu.dcache.demandMshrHits::cpu.data        56238                       # number of demand (read+write) MSHR hits (Count)
system.cpu.dcache.demandMshrHits::total         56238                       # number of demand (read+write) MSHR hits (Count)
system.cpu.dcache.overallMshrHits::cpu.data        56238                       # number of overall MSHR hits (Count)
system.cpu.dcache.overallMshrHits::total        56238                       # number of overall MSHR hits (Count)
system.cpu.dcache.demandMshrMisses::cpu.data      1681426                       # number of demand (read+write) MSHR misses (Count)
system.cpu.dcache.demandMshrMisses::total      1681426                       # number of demand (read+write) MSHR misses (Count)
system.cpu.dcache.overallMshrMisses::cpu.data      1681426                       # number of overall MSHR misses (Count)
system.cpu.dcache.overallMshrMisses::total      1681426                       # number of overall MSHR misses (Count)
system.cpu.dcache.demandMshrMissLatency::cpu.data  55112628199                       # number of demand (read+write) MSHR miss ticks (Tick)
system.cpu.dcache.demandMshrMissLatency::total  55112628199                       # number of demand (read+write) MSHR miss ticks (Tick)
system.cpu.dcache.overallMshrMissLatency::cpu.data  55112628199                       # number of overall MSHR miss ticks (Tick)
system.cpu.dcache.overallMshrMissLatency::total  55112628199                       # number of overall MSHR miss ticks (Tick)
system.cpu.dcache.demandMshrMissRate::cpu.data     0.405512                       # mshr miss ratio for demand accesses (Ratio)
system.cpu.dcache.demandMshrMissRate::total     0.405512                       # mshr miss ratio for demand accesses (Ratio)
system.cpu.dcache.overallMshrMissRate::cpu.data     0.405512                       # mshr miss ratio for overall accesses (Ratio)
system.cpu.dcache.overallMshrMissRate::total     0.405512                       # mshr miss ratio for overall accesses (Ratio)
system.cpu.dcache.demandAvgMshrMissLatency::cpu.data 32777.314136                       # average overall mshr miss latency ((Tick/Count))
system.cpu.dcache.demandAvgMshrMissLatency::total 32777.314136                       # average overall mshr miss latency ((Tick/Count))
system.cpu.dcache.overallAvgMshrMissLatency::cpu.data 32777.314136                       # average overall mshr miss latency ((Tick/Count))
system.cpu.dcache.overallAvgMshrMissLatency::total 32777.314136                       # average overall mshr miss latency ((Tick/Count))
system.cpu.dcache.replacements                1680401                       # number of replacements (Count)
system.cpu.dcache.ReadReq.hits::cpu.data       621627                       # number of ReadReq hits (Count)
system.cpu.dcache.ReadReq.hits::total          621627                       # number of ReadReq hits (Count)
system.cpu.dcache.ReadReq.misses::cpu.data      1732055                       # number of ReadReq misses (Count)
system.cpu.dcache.ReadReq.misses::total       1732055                       # number of ReadReq misses (Count)
system.cpu.dcache.ReadReq.missLatency::cpu.data  59889391500                       # number of ReadReq miss ticks (Tick)
system.cpu.dcache.ReadReq.missLatency::total  59889391500                       # number of ReadReq miss ticks (Tick)
system.cpu.dcache.ReadReq.accesses::cpu.data      2353682                       # number of ReadReq accesses(hits+misses) (Count)
system.cpu.dcache.ReadReq.accesses::total      2353682                       # number of ReadReq accesses(hits+misses) (Count)
system.cpu.dcache.ReadReq.missRate::cpu.data     0.735892                       # miss rate for ReadReq accesses (Ratio)
system.cpu.dcache.ReadReq.missRate::total     0.735892                       # miss rate for ReadReq accesses (Ratio)
system.cpu.dcache.ReadReq.avgMissLatency::cpu.data 34577.072610                       # average ReadReq miss latency ((Tick/Count))
system.cpu.dcache.ReadReq.avgMissLatency::total 34577.072610                       # average ReadReq miss latency ((Tick/Count))
system.cpu.dcache.ReadReq.mshrHits::cpu.data        52858                       # number of ReadReq MSHR hits (Count)
system.cpu.dcache.ReadReq.mshrHits::total        52858                       # number of ReadReq MSHR hits (Count)
system.cpu.dcache.ReadReq.mshrMisses::cpu.data      1679197                       # number of ReadReq MSHR misses (Count)
system.cpu.dcache.ReadReq.mshrMisses::total      1679197                       # number of ReadReq MSHR misses (Count)
system.cpu.dcache.ReadReq.mshrMissLatency::cpu.data  54978572500                       # number of ReadReq MSHR miss ticks (Tick)
system.cpu.dcache.ReadReq.mshrMissLatency::total  54978572500                       # number of ReadReq MSHR miss ticks (Tick)
system.cpu.dcache.ReadReq.mshrMissRate::cpu.data     0.713434                       # mshr miss rate for ReadReq accesses (Ratio)
system.cpu.dcache.ReadReq.mshrMissRate::total     0.713434                       # mshr miss rate for ReadReq accesses (Ratio)
system.cpu.dcache.ReadReq.avgMshrMissLatency::cpu.data 32740.990188                       # average ReadReq mshr miss latency ((Tick/Count))
system.cpu.dcache.ReadReq.avgMshrMissLatency::total 32740.990188                       # average ReadReq mshr miss latency ((Tick/Count))
system.cpu.dcache.SwapReq.hits::cpu.data           27                       # number of SwapReq hits (Count)
system.cpu.dcache.SwapReq.hits::total              27                       # number of SwapReq hits (Count)
system.cpu.dcache.SwapReq.misses::cpu.data            3                       # number of SwapReq misses (Count)
system.cpu.dcache.SwapReq.misses::total             3                       # number of SwapReq misses (Count)
system.cpu.dcache.SwapReq.missLatency::cpu.data       126000                       # number of SwapReq miss ticks (Tick)
system.cpu.dcache.SwapReq.missLatency::total       126000                       # number of SwapReq miss ticks (Tick)
system.cpu.dcache.SwapReq.accesses::cpu.data           30                       # number of SwapReq accesses(hits+misses) (Count)
system.cpu.dcache.SwapReq.accesses::total           30                       # number of SwapReq accesses(hits+misses) (Count)
system.cpu.dcache.SwapReq.missRate::cpu.data     0.100000                       # miss rate for SwapReq accesses (Ratio)
system.cpu.dcache.SwapReq.missRate::total     0.100000                       # miss rate for SwapReq accesses (Ratio)
system.cpu.dcache.SwapReq.avgMissLatency::cpu.data        42000                       # average SwapReq miss latency ((Tick/Count))
system.cpu.dcache.SwapReq.avgMissLatency::total        42000                       # average SwapReq miss latency ((Tick/Count))
system.cpu.dcache.SwapReq.mshrMisses::cpu.data            3                       # number of SwapReq MSHR misses (Count)
system.cpu.dcache.SwapReq.mshrMisses::total            3                       # number of SwapReq MSHR misses (Count)
system.cpu.dcache.SwapReq.mshrMissLatency::cpu.data       123000                       # number of SwapReq MSHR miss ticks (Tick)
system.cpu.dcache.SwapReq.mshrMissLatency::total       123000                       # number of SwapReq MSHR miss ticks (Tick)
system.cpu.dcache.SwapReq.mshrMissRate::cpu.data     0.100000                       # mshr miss rate for SwapReq accesses (Ratio)
system.cpu.dcache.SwapReq.mshrMissRate::total     0.100000                       # mshr miss rate for SwapReq accesses (Ratio)
system.cpu.dcache.SwapReq.avgMshrMissLatency::cpu.data        41000                       # average SwapReq mshr miss latency ((Tick/Count))
system.cpu.dcache.SwapReq.avgMshrMissLatency::total        41000                       # average SwapReq mshr miss latency ((Tick/Count))
system.cpu.dcache.WriteLineReq.misses::cpu.data          131                       # number of WriteLineReq misses (Count)
system.cpu.dcache.WriteLineReq.misses::total          131                       # number of WriteLineReq misses (Count)
system.cpu.dcache.WriteLineReq.missLatency::cpu.data      4174908                       # number of WriteLineReq miss ticks (Tick)
system.cpu.dcache.WriteLineReq.missLatency::total      4174908                       # number of WriteLineReq miss ticks (Tick)
system.cpu.dcache.WriteLineReq.accesses::cpu.data          131                       # number of WriteLineReq accesses(hits+misses) (Count)
system.cpu.dcache.WriteLineReq.accesses::total          131                       # number of WriteLineReq accesses(hits+misses) (Count)
system.cpu.dcache.WriteLineReq.missRate::cpu.data            1                       # miss rate for WriteLineReq accesses (Ratio)
system.cpu.dcache.WriteLineReq.missRate::total            1                       # miss rate for WriteLineReq accesses (Ratio)
system.cpu.dcache.WriteLineReq.avgMissLatency::cpu.data 31869.526718                       # average WriteLineReq miss latency ((Tick/Count))
system.cpu.dcache.WriteLineReq.avgMissLatency::total 31869.526718                       # average WriteLineReq miss latency ((Tick/Count))
system.cpu.dcache.WriteLineReq.mshrMisses::cpu.data          131                       # number of WriteLineReq MSHR misses (Count)
system.cpu.dcache.WriteLineReq.mshrMisses::total          131                       # number of WriteLineReq MSHR misses (Count)
system.cpu.dcache.WriteLineReq.mshrMissLatency::cpu.data      4043908                       # number of WriteLineReq MSHR miss ticks (Tick)
system.cpu.dcache.WriteLineReq.mshrMissLatency::total      4043908                       # number of WriteLineReq MSHR miss ticks (Tick)
system.cpu.dcache.WriteLineReq.mshrMissRate::cpu.data            1                       # mshr miss rate for WriteLineReq accesses (Ratio)
system.cpu.dcache.WriteLineReq.mshrMissRate::total            1                       # mshr miss rate for WriteLineReq accesses (Ratio)
system.cpu.dcache.WriteLineReq.avgMshrMissLatency::cpu.data 30869.526718                       # average WriteLineReq mshr miss latency ((Tick/Count))
system.cpu.dcache.WriteLineReq.avgMshrMissLatency::total 30869.526718                       # average WriteLineReq mshr miss latency ((Tick/Count))
system.cpu.dcache.WriteReq.hits::cpu.data      1787135                       # number of WriteReq hits (Count)
system.cpu.dcache.WriteReq.hits::total        1787135                       # number of WriteReq hits (Count)
system.cpu.dcache.WriteReq.misses::cpu.data         5478                       # number of WriteReq misses (Count)
system.cpu.dcache.WriteReq.misses::total         5478                       # number of WriteReq misses (Count)
system.cpu.dcache.WriteReq.missLatency::cpu.data    335450585                       # number of WriteReq miss ticks (Tick)
system.cpu.dcache.WriteReq.missLatency::total    335450585                       # number of WriteReq miss ticks (Tick)
system.cpu.dcache.WriteReq.accesses::cpu.data      1792613                       # number of WriteReq accesses(hits+misses) (Count)
system.cpu.dcache.WriteReq.accesses::total      1792613                       # number of WriteReq accesses(hits+misses) (Count)
system.cpu.dcache.WriteReq.missRate::cpu.data     0.003056                       # miss rate for WriteReq accesses (Ratio)
system.cpu.dcache.WriteReq.missRate::total     0.003056                       # miss rate for WriteReq accesses (Ratio)
system.cpu.dcache.WriteReq.avgMissLatency::cpu.data 61235.959292                       # average WriteReq miss latency ((Tick/Count))
system.cpu.dcache.WriteReq.avgMissLatency::total 61235.959292                       # average WriteReq miss latency ((Tick/Count))
system.cpu.dcache.WriteReq.mshrHits::cpu.data         3380                       # number of WriteReq MSHR hits (Count)
system.cpu.dcache.WriteReq.mshrHits::total         3380                       # number of WriteReq MSHR hits (Count)
system.cpu.dcache.WriteReq.mshrMisses::cpu.data         2098                       # number of WriteReq MSHR misses (Count)
system.cpu.dcache.WriteReq.mshrMisses::total         2098                       # number of WriteReq MSHR misses (Count)
system.cpu.dcache.WriteReq.mshrMissLatency::cpu.data    130011791                       # number of WriteReq MSHR miss ticks (Tick)
system.cpu.dcache.WriteReq.mshrMissLatency::total    130011791                       # number of WriteReq MSHR miss ticks (Tick)
system.cpu.dcache.WriteReq.mshrMissRate::cpu.data     0.001170                       # mshr miss rate for WriteReq accesses (Ratio)
system.cpu.dcache.WriteReq.mshrMissRate::total     0.001170                       # mshr miss rate for WriteReq accesses (Ratio)
system.cpu.dcache.WriteReq.avgMshrMissLatency::cpu.data 61969.395138                       # average WriteReq mshr miss latency ((Tick/Count))
system.cpu.dcache.WriteReq.avgMshrMissLatency::total 61969.395138                       # average WriteReq mshr miss latency ((Tick/Count))
system.cpu.dcache.power_state.pwrStateResidencyTicks::UNDEFINED  17419513000                       # Cumulative time (in ticks) in various power states (Tick)
system.cpu.dcache.tags.tagsInUse          1021.857369                       # Average ticks per tags in use ((Tick/Count))
system.cpu.dcache.tags.totalRefs              3937091                       # Total number of references to valid blocks. (Count)
system.cpu.dcache.tags.sampledRefs            1680401                       # Sample count of references to valid blocks. (Count)
system.cpu.dcache.tags.avgRefs               2.342947                       # Average number of references to valid blocks. ((Count/Count))
system.cpu.dcache.tags.warmupTick              253500                       # The tick when the warmup percentage was hit. (Tick)
system.cpu.dcache.tags.occupancies::cpu.data  1021.857369                       # Average occupied blocks per tick, per requestor ((Count/Tick))
system.cpu.dcache.tags.avgOccs::cpu.data     0.997908                       # Average percentage of cache occupancy ((Ratio/Tick))
system.cpu.dcache.tags.avgOccs::total        0.997908                       # Average percentage of cache occupancy ((Ratio/Tick))
system.cpu.dcache.tags.occupanciesTaskId::1024         1024                       # Occupied blocks per task id (Count)
system.cpu.dcache.tags.ageTaskId_1024::0          302                       # Occupied blocks per task id, per block age (Count)
system.cpu.dcache.tags.ageTaskId_1024::1          412                       # Occupied blocks per task id, per block age (Count)
system.cpu.dcache.tags.ageTaskId_1024::2          309                       # Occupied blocks per task id, per block age (Count)
system.cpu.dcache.tags.ageTaskId_1024::4            1                       # Occupied blocks per task id, per block age (Count)
system.cpu.dcache.tags.ratioOccsTaskId::1024            1                       # Ratio of occupied blocks and all blocks, per task id (Ratio)
system.cpu.dcache.tags.tagAccesses           18267249                       # Number of tag accesses (Count)
system.cpu.dcache.tags.dataAccesses          18267249                       # Number of data accesses (Count)
system.cpu.dcache.tags.power_state.pwrStateResidencyTicks::UNDEFINED  17419513000                       # Cumulative time (in ticks) in various power states (Tick)
system.cpu.decode.idleCycles                  1188932                       # Number of cycles decode is idle (Cycle)
system.cpu.decode.blockedCycles              28159279                       # Number of cycles decode is blocked (Cycle)
system.cpu.decode.runCycles                   4557253                       # Number of cycles decode is running (Cycle)
system.cpu.decode.unblockCycles                788253                       # Number of cycles decode is unblocking (Cycle)
system.cpu.decode.squashCycles                  23793                       # Number of cycles decode is squashing (Cycle)
system.cpu.decode.branchResolved               485913                       # Number of times decode resolved a branch (Count)
system.cpu.decode.branchMispred                   747                       # Number of times decode detected a branch misprediction (Count)
system.cpu.decode.decodedInsts               40405435                       # Number of instructions handled by decode (Count)
system.cpu.decode.squashedInsts                  2494                       # Number of squashed instructions handled by decode (Count)
system.cpu.fetch.icacheStallCycles            2958015                       # Number of cycles fetch is stalled on an Icache miss (Cycle)
system.cpu.fetch.insts                       40370724                       # Number of instructions fetch has processed (Count)
system.cpu.fetch.branches                     8734735                       # Number of branches that fetch encountered (Count)
system.cpu.fetch.predictedBranches             527650                       # Number of branches that fetch has predicted taken (Count)
system.cpu.fetch.cycles                      31731801                       # Number of cycles fetch has run and was not squashing or blocked (Cycle)
system.cpu.fetch.squashCycles                   49036                       # Number of cycles fetch has spent squashing (Cycle)
system.cpu.fetch.miscStallCycles                  419                       # Number of cycles fetch has spent waiting on interrupts, or bad addresses, or out of MSHRs (Cycle)
system.cpu.fetch.pendingTrapStallCycles          2708                       # Number of stall cycles due to pending traps (Cycle)
system.cpu.fetch.icacheWaitRetryStallCycles           49                       # Number of stall cycles due to full MSHR (Cycle)
system.cpu.fetch.cacheLines                   2909537                       # Number of cache lines fetched (Count)
system.cpu.fetch.icacheSquashes                  6318                       # Number of outstanding Icache misses that were squashed (Count)
system.cpu.fetch.nisnDist::samples           34717510                       # Number of instructions fetched each cycle (Total) (Count)
system.cpu.fetch.nisnDist::mean              1.173661                       # Number of instructions fetched each cycle (Total) (Count)
system.cpu.fetch.nisnDist::stdev             2.763660                       # Number of instructions fetched each cycle (Total) (Count)
system.cpu.fetch.nisnDist::underflows               0      0.00%      0.00% # Number of instructions fetched each cycle (Total) (Count)
system.cpu.fetch.nisnDist::0                 29073525     83.74%     83.74% # Number of instructions fetched each cycle (Total) (Count)
system.cpu.fetch.nisnDist::1                    78940      0.23%     83.97% # Number of instructions fetched each cycle (Total) (Count)
system.cpu.fetch.nisnDist::2                   288275      0.83%     84.80% # Number of instructions fetched each cycle (Total) (Count)
system.cpu.fetch.nisnDist::3                   113910      0.33%     85.13% # Number of instructions fetched each cycle (Total) (Count)
system.cpu.fetch.nisnDist::4                   201762      0.58%     85.71% # Number of instructions fetched each cycle (Total) (Count)
system.cpu.fetch.nisnDist::5                   158148      0.46%     86.17% # Number of instructions fetched each cycle (Total) (Count)
system.cpu.fetch.nisnDist::6                   120418      0.35%     86.51% # Number of instructions fetched each cycle (Total) (Count)
system.cpu.fetch.nisnDist::7                    31170      0.09%     86.60% # Number of instructions fetched each cycle (Total) (Count)
system.cpu.fetch.nisnDist::8                  4651362     13.40%    100.00% # Number of instructions fetched each cycle (Total) (Count)
system.cpu.fetch.nisnDist::overflows                0      0.00%    100.00% # Number of instructions fetched each cycle (Total) (Count)
system.cpu.fetch.nisnDist::min_value                0                       # Number of instructions fetched each cycle (Total) (Count)
system.cpu.fetch.nisnDist::max_value                8                       # Number of instructions fetched each cycle (Total) (Count)
system.cpu.fetch.nisnDist::total             34717510                       # Number of instructions fetched each cycle (Total) (Count)
system.cpu.fetch.branchRate                  0.250717                       # Number of branch fetches per cycle (Ratio)
system.cpu.fetch.rate                        1.158779                       # Number of inst fetches per cycle ((Count/Cycle))
system.cpu.icache.demandHits::cpu.inst        2907186                       # number of demand (read+write) hits (Count)
system.cpu.icache.demandHits::total           2907186                       # number of demand (read+write) hits (Count)
system.cpu.icache.overallHits::cpu.inst       2907186                       # number of overall hits (Count)
system.cpu.icache.overallHits::total          2907186                       # number of overall hits (Count)
system.cpu.icache.demandMisses::cpu.inst         2351                       # number of demand (read+write) misses (Count)
system.cpu.icache.demandMisses::total            2351                       # number of demand (read+write) misses (Count)
system.cpu.icache.overallMisses::cpu.inst         2351                       # number of overall misses (Count)
system.cpu.icache.overallMisses::total           2351                       # number of overall misses (Count)
system.cpu.icache.demandMissLatency::cpu.inst    154324999                       # number of demand (read+write) miss ticks (Tick)
system.cpu.icache.demandMissLatency::total    154324999                       # number of demand (read+write) miss ticks (Tick)
system.cpu.icache.overallMissLatency::cpu.inst    154324999                       # number of overall miss ticks (Tick)
system.cpu.icache.overallMissLatency::total    154324999                       # number of overall miss ticks (Tick)
system.cpu.icache.demandAccesses::cpu.inst      2909537                       # number of demand (read+write) accesses (Count)
system.cpu.icache.demandAccesses::total       2909537                       # number of demand (read+write) accesses (Count)
system.cpu.icache.overallAccesses::cpu.inst      2909537                       # number of overall (read+write) accesses (Count)
system.cpu.icache.overallAccesses::total      2909537                       # number of overall (read+write) accesses (Count)
system.cpu.icache.demandMissRate::cpu.inst     0.000808                       # miss rate for demand accesses (Ratio)
system.cpu.icache.demandMissRate::total      0.000808                       # miss rate for demand accesses (Ratio)
system.cpu.icache.overallMissRate::cpu.inst     0.000808                       # miss rate for overall accesses (Ratio)
system.cpu.icache.overallMissRate::total     0.000808                       # miss rate for overall accesses (Ratio)
system.cpu.icache.demandAvgMissLatency::cpu.inst 65642.279456                       # average overall miss latency in ticks ((Tick/Count))
system.cpu.icache.demandAvgMissLatency::total 65642.279456                       # average overall miss latency in ticks ((Tick/Count))
system.cpu.icache.overallAvgMissLatency::cpu.inst 65642.279456                       # average overall miss latency ((Tick/Count))
system.cpu.icache.overallAvgMissLatency::total 65642.279456                       # average overall miss latency ((Tick/Count))
system.cpu.icache.blockedCycles::no_mshrs          516                       # number of cycles access was blocked (Cycle)
system.cpu.icache.blockedCycles::no_targets            0                       # number of cycles access was blocked (Cycle)
system.cpu.icache.blockedCauses::no_mshrs           10                       # number of times access was blocked (Count)
system.cpu.icache.blockedCauses::no_targets            0                       # number of times access was blocked (Count)
system.cpu.icache.avgBlocked::no_mshrs      51.600000                       # average number of cycles each access was blocked ((Cycle/Count))
system.cpu.icache.avgBlocked::no_targets          nan                       # average number of cycles each access was blocked ((Cycle/Count))
system.cpu.icache.writebacks::writebacks         1573                       # number of writebacks (Count)
system.cpu.icache.writebacks::total              1573                       # number of writebacks (Count)
system.cpu.icache.demandMshrHits::cpu.inst          522                       # number of demand (read+write) MSHR hits (Count)
system.cpu.icache.demandMshrHits::total           522                       # number of demand (read+write) MSHR hits (Count)
system.cpu.icache.overallMshrHits::cpu.inst          522                       # number of overall MSHR hits (Count)
system.cpu.icache.overallMshrHits::total          522                       # number of overall MSHR hits (Count)
system.cpu.icache.demandMshrMisses::cpu.inst         1829                       # number of demand (read+write) MSHR misses (Count)
system.cpu.icache.demandMshrMisses::total         1829                       # number of demand (read+write) MSHR misses (Count)
system.cpu.icache.overallMshrMisses::cpu.inst         1829                       # number of overall MSHR misses (Count)
system.cpu.icache.overallMshrMisses::total         1829                       # number of overall MSHR misses (Count)
system.cpu.icache.demandMshrMissLatency::cpu.inst    121479000                       # number of demand (read+write) MSHR miss ticks (Tick)
system.cpu.icache.demandMshrMissLatency::total    121479000                       # number of demand (read+write) MSHR miss ticks (Tick)
system.cpu.icache.overallMshrMissLatency::cpu.inst    121479000                       # number of overall MSHR miss ticks (Tick)
system.cpu.icache.overallMshrMissLatency::total    121479000                       # number of overall MSHR miss ticks (Tick)
system.cpu.icache.demandMshrMissRate::cpu.inst     0.000629                       # mshr miss ratio for demand accesses (Ratio)
system.cpu.icache.demandMshrMissRate::total     0.000629                       # mshr miss ratio for demand accesses (Ratio)
system.cpu.icache.overallMshrMissRate::cpu.inst     0.000629                       # mshr miss ratio for overall accesses (Ratio)
system.cpu.icache.overallMshrMissRate::total     0.000629                       # mshr miss ratio for overall accesses (Ratio)
system.cpu.icache.demandAvgMshrMissLatency::cpu.inst 66418.261345                       # average overall mshr miss latency ((Tick/Count))
system.cpu.icache.demandAvgMshrMissLatency::total 66418.261345                       # average overall mshr miss latency ((Tick/Count))
system.cpu.icache.overallAvgMshrMissLatency::cpu.inst 66418.261345                       # average overall mshr miss latency ((Tick/Count))
system.cpu.icache.overallAvgMshrMissLatency::total 66418.261345                       # average overall mshr miss latency ((Tick/Count))
system.cpu.icache.replacements                   1573                       # number of replacements (Count)
system.cpu.icache.ReadReq.hits::cpu.inst      2907186                       # number of ReadReq hits (Count)
system.cpu.icache.ReadReq.hits::total         2907186                       # number of ReadReq hits (Count)
system.cpu.icache.ReadReq.misses::cpu.inst         2351                       # number of ReadReq misses (Count)
system.cpu.icache.ReadReq.misses::total          2351                       # number of ReadReq misses (Count)
system.cpu.icache.ReadReq.missLatency::cpu.inst    154324999                       # number of ReadReq miss ticks (Tick)
system.cpu.icache.ReadReq.missLatency::total    154324999                       # number of ReadReq miss ticks (Tick)
system.cpu.icache.ReadReq.accesses::cpu.inst      2909537                       # number of ReadReq accesses(hits+misses) (Count)
system.cpu.icache.ReadReq.accesses::total      2909537                       # number of ReadReq accesses(hits+misses) (Count)
system.cpu.icache.ReadReq.missRate::cpu.inst     0.000808                       # miss rate for ReadReq accesses (Ratio)
system.cpu.icache.ReadReq.missRate::total     0.000808                       # miss rate for ReadReq accesses (Ratio)
system.cpu.icache.ReadReq.avgMissLatency::cpu.inst 65642.279456                       # average ReadReq miss latency ((Tick/Count))
system.cpu.icache.ReadReq.avgMissLatency::total 65642.279456                       # average ReadReq miss latency ((Tick/Count))
system.cpu.icache.ReadReq.mshrHits::cpu.inst          522                       # number of ReadReq MSHR hits (Count)
system.cpu.icache.ReadReq.mshrHits::total          522                       # number of ReadReq MSHR hits (Count)
system.cpu.icache.ReadReq.mshrMisses::cpu.inst         1829                       # number of ReadReq MSHR misses (Count)
system.cpu.icache.ReadReq.mshrMisses::total         1829                       # number of ReadReq MSHR misses (Count)
system.cpu.icache.ReadReq.mshrMissLatency::cpu.inst    121479000                       # number of ReadReq MSHR miss ticks (Tick)
system.cpu.icache.ReadReq.mshrMissLatency::total    121479000                       # number of ReadReq MSHR miss ticks (Tick)
system.cpu.icache.ReadReq.mshrMissRate::cpu.inst     0.000629                       # mshr miss rate for ReadReq accesses (Ratio)
system.cpu.icache.ReadReq.mshrMissRate::total     0.000629                       # mshr miss rate for ReadReq accesses (Ratio)
system.cpu.icache.ReadReq.avgMshrMissLatency::cpu.inst 66418.261345                       # average ReadReq mshr miss latency ((Tick/Count))
system.cpu.icache.ReadReq.avgMshrMissLatency::total 66418.261345                       # average ReadReq mshr miss latency ((Tick/Count))
system.cpu.icache.power_state.pwrStateResidencyTicks::UNDEFINED  17419513000                       # Cumulative time (in ticks) in various power states (Tick)
system.cpu.icache.tags.tagsInUse           255.775045                       # Average ticks per tags in use ((Tick/Count))
system.cpu.icache.tags.totalRefs               182154                       # Total number of references to valid blocks. (Count)
system.cpu.icache.tags.sampledRefs               1573                       # Sample count of references to valid blocks. (Count)
system.cpu.icache.tags.avgRefs             115.800381                       # Average number of references to valid blocks. ((Count/Count))
system.cpu.icache.tags.warmupTick               87500                       # The tick when the warmup percentage was hit. (Tick)
system.cpu.icache.tags.occupancies::cpu.inst   255.775045                       # Average occupied blocks per tick, per requestor ((Count/Tick))
system.cpu.icache.tags.avgOccs::cpu.inst     0.999121                       # Average percentage of cache occupancy ((Ratio/Tick))
system.cpu.icache.tags.avgOccs::total        0.999121                       # Average percentage of cache occupancy ((Ratio/Tick))
system.cpu.icache.tags.occupanciesTaskId::1024          256                       # Occupied blocks per task id (Count)
system.cpu.icache.tags.ageTaskId_1024::4          256                       # Occupied blocks per task id, per block age (Count)
system.cpu.icache.tags.ratioOccsTaskId::1024            1                       # Ratio of occupied blocks and all blocks, per task id (Ratio)
system.cpu.icache.tags.tagAccesses           11639977                       # Number of tag accesses (Count)
system.cpu.icache.tags.dataAccesses          11639977                       # Number of data accesses (Count)
system.cpu.icache.tags.power_state.pwrStateResidencyTicks::UNDEFINED  17419513000                       # Cumulative time (in ticks) in various power states (Tick)
system.cpu.iew.idleCycles                           0                       # Number of cycles IEW is idle (Cycle)
system.cpu.iew.squashCycles                     23793                       # Number of cycles IEW is squashing (Cycle)
system.cpu.iew.blockCycles                    2259181                       # Number of cycles IEW is blocking (Cycle)
system.cpu.iew.unblockCycles                   131764                       # Number of cycles IEW is unblocking (Cycle)
system.cpu.iew.dispatchedInsts               40100059                       # Number of instructions dispatched to IQ (Count)
system.cpu.iew.dispSquashedInsts                 4921                       # Number of squashed instructions skipped by dispatch (Count)
system.cpu.iew.dispLoadInsts                  2448416                       # Number of dispatched load instructions (Count)
system.cpu.iew.dispStoreInsts                 1844769                       # Number of dispatched store instructions (Count)
system.cpu.iew.dispNonSpecInsts                   154                       # Number of dispatched non-speculative instructions (Count)
system.cpu.iew.iqFullEvents                     53335                       # Number of times the IQ has become full, causing a stall (Count)
system.cpu.iew.lsqFullEvents                    28364                       # Number of times the LSQ has become full, causing a stall (Count)
system.cpu.iew.memOrderViolationEvents            284                       # Number of memory order violations (Count)
system.cpu.iew.predictedTakenIncorrect          11505                       # Number of branches that were predicted taken incorrectly (Count)
system.cpu.iew.predictedNotTakenIncorrect        16481                       # Number of branches that were predicted not taken incorrectly (Count)
system.cpu.iew.branchMispredicts                27986                       # Number of branch mispredicts detected at execute (Count)
system.cpu.iew.instsToCommit                 39722721                       # Cumulative count of insts sent to commit (Count)
system.cpu.iew.writebackCount                39710687                       # Cumulative count of insts written-back (Count)
system.cpu.iew.producerInst                  22775647                       # Number of instructions producing a value (Count)
system.cpu.iew.consumerInst                  46226876                       # Number of instructions consuming a value (Count)
system.cpu.iew.wbRate                        1.139833                       # Insts written-back per cycle ((Count/Cycle))
system.cpu.iew.wbFanout                      0.492693                       # Average fanout of values written-back ((Count/Count))
system.cpu.lsq0.forwLoads                       52488                       # Number of loads that had data forwarded from stores (Count)
system.cpu.lsq0.squashedLoads                  127275                       # Number of loads squashed (Count)
system.cpu.lsq0.ignoredResponses                   54                       # Number of memory responses ignored because the instruction is squashed (Count)
system.cpu.lsq0.memOrderViolation                 284                       # Number of memory ordering violations (Count)
system.cpu.lsq0.squashedStores                  51997                       # Number of stores squashed (Count)
system.cpu.lsq0.rescheduledLoads                 9195                       # Number of loads that were rescheduled (Count)
system.cpu.lsq0.blockedByCache                1108653                       # Number of times an access to memory failed due to the cache being blocked (Count)
system.cpu.lsq0.loadToUse::samples            2321128                       # Distribution of cycle latency between the first time a load is issued and its completion (Unspecified)
system.cpu.lsq0.loadToUse::mean             64.517452                       # Distribution of cycle latency between the first time a load is issued and its completion (Unspecified)
system.cpu.lsq0.loadToUse::stdev            81.999513                       # Distribution of cycle latency between the first time a load is issued and its completion (Unspecified)
system.cpu.lsq0.loadToUse::0-9                 478648     20.62%     20.62% # Distribution of cycle latency between the first time a load is issued and its completion (Unspecified)
system.cpu.lsq0.loadToUse::10-19                27583      1.19%     21.81% # Distribution of cycle latency between the first time a load is issued and its completion (Unspecified)
system.cpu.lsq0.loadToUse::20-29               636500     27.42%     49.23% # Distribution of cycle latency between the first time a load is issued and its completion (Unspecified)
system.cpu.lsq0.loadToUse::30-39               146624      6.32%     55.55% # Distribution of cycle latency between the first time a load is issued and its completion (Unspecified)
system.cpu.lsq0.loadToUse::40-49               267672     11.53%     67.08% # Distribution of cycle latency between the first time a load is issued and its completion (Unspecified)
system.cpu.lsq0.loadToUse::50-59               160815      6.93%     74.01% # Distribution of cycle latency between the first time a load is issued and its completion (Unspecified)
[...]
system.mem_ctrls.dram.perBankWrBursts::7           29                       # Per bank write bursts (Count)
system.mem_ctrls.dram.perBankWrBursts::8           42                       # Per bank write bursts (Count)
system.mem_ctrls.dram.perBankWrBursts::9            7                       # Per bank write bursts (Count)
system.mem_ctrls.dram.perBankWrBursts::10           12                       # Per bank write bursts (Count)
system.mem_ctrls.dram.perBankWrBursts::11           22                       # Per bank write bursts (Count)
system.mem_ctrls.dram.perBankWrBursts::12            6                       # Per bank write bursts (Count)
system.mem_ctrls.dram.perBankWrBursts::13           39                       # Per bank write bursts (Count)
system.mem_ctrls.dram.perBankWrBursts::14           41                       # Per bank write bursts (Count)
system.mem_ctrls.dram.perBankWrBursts::15           57                       # Per bank write bursts (Count)
system.mem_ctrls.dram.totQLat                14644250                       # Total ticks spent queuing (Tick)
system.mem_ctrls.dram.totBusLat               2675000                       # Total ticks spent in databus transfers (Tick)
system.mem_ctrls.dram.totMemAccLat           24675500                       # Total ticks spent from burst creation until serviced by the DRAM (Tick)
system.mem_ctrls.dram.avgQLat                27372.43                       # Average queueing delay per DRAM burst ((Tick/Count))
system.mem_ctrls.dram.avgBusLat               5000.00                       # Average bus latency per DRAM burst ((Tick/Count))
system.mem_ctrls.dram.avgMemAccLat           46122.43                       # Average memory access latency per DRAM burst ((Tick/Count))
system.mem_ctrls.dram.readRowHits                 311                       # Number of row buffer hits during reads (Count)
system.mem_ctrls.dram.writeRowHits                384                       # Number of row buffer hits during writes (Count)
system.mem_ctrls.dram.readRowHitRate            58.13                       # Row buffer hit rate for reads (Ratio)
system.mem_ctrls.dram.writeRowHitRate           69.57                       # Row buffer hit rate for writes (Ratio)
system.mem_ctrls.dram.bytesPerActivate::samples          398                       # Bytes accessed per row activation (Byte)
system.mem_ctrls.dram.bytesPerActivate::mean   180.422111                       # Bytes accessed per row activation (Byte)
system.mem_ctrls.dram.bytesPerActivate::gmean   130.242313                       # Bytes accessed per row activation (Byte)
system.mem_ctrls.dram.bytesPerActivate::stdev   173.183040                       # Bytes accessed per row activation (Byte)
system.mem_ctrls.dram.bytesPerActivate::0-127          175     43.97%     43.97% # Bytes accessed per row activation (Byte)
system.mem_ctrls.dram.bytesPerActivate::128-255          122     30.65%     74.62% # Bytes accessed per row activation (Byte)
system.mem_ctrls.dram.bytesPerActivate::256-383           49     12.31%     86.93% # Bytes accessed per row activation (Byte)
system.mem_ctrls.dram.bytesPerActivate::384-511           24      6.03%     92.96% # Bytes accessed per row activation (Byte)
system.mem_ctrls.dram.bytesPerActivate::512-639           10      2.51%     95.48% # Bytes accessed per row activation (Byte)
system.mem_ctrls.dram.bytesPerActivate::640-767            9      2.26%     97.74% # Bytes accessed per row activation (Byte)
system.mem_ctrls.dram.bytesPerActivate::768-895            5      1.26%     98.99% # Bytes accessed per row activation (Byte)
system.mem_ctrls.dram.bytesPerActivate::896-1023            3      0.75%     99.75% # Bytes accessed per row activation (Byte)
system.mem_ctrls.dram.bytesPerActivate::1024-1151            1      0.25%    100.00% # Bytes accessed per row activation (Byte)
system.mem_ctrls.dram.bytesPerActivate::total          398                       # Bytes accessed per row activation (Byte)
system.mem_ctrls.dram.bytesRead                 34240                       # Total bytes read (Byte)
system.mem_ctrls.dram.bytesWritten              35328                       # Total bytes written (Byte)
system.mem_ctrls.dram.avgRdBW             1147.722321                       # Average DRAM read bandwidth in MiBytes/s ((Byte/Second))
system.mem_ctrls.dram.avgWrBW             1184.192002                       # Average DRAM write bandwidth in MiBytes/s ((Byte/Second))
system.mem_ctrls.dram.peakBW                 12800.00                       # Theoretical peak bandwidth in MiByte/s ((Byte/Second))
system.mem_ctrls.dram.busUtil                   18.22                       # Data bus utilization in percentage (Ratio)
system.mem_ctrls.dram.busUtilRead                8.97                       # Data bus utilization in percentage for reads (Ratio)
system.mem_ctrls.dram.busUtilWrite               9.25                       # Data bus utilization in percentage for writes (Ratio)
system.mem_ctrls.dram.pageHitRate               63.94                       # Row buffer hit rate, read and write combined (Ratio)
system.mem_ctrls.dram.power_state.pwrStateResidencyTicks::UNDEFINED     29833000                       # Cumulative time (in ticks) in various power states (Tick)
system.mem_ctrls.dram.rank0.actEnergy         1542240                       # Energy for activate commands per rank (pJ) (Joule)
system.mem_ctrls.dram.rank0.preEnergy          834900                       # Energy for precharge commands per rank (pJ) (Joule)
system.mem_ctrls.dram.rank0.readEnergy        1913520                       # Energy for read commands per rank (pJ) (Joule)
system.mem_ctrls.dram.rank0.writeEnergy       1701720                       # Energy for write commands per rank (pJ) (Joule)
system.mem_ctrls.dram.rank0.refreshEnergy 2458560.000000                       # Energy for refresh commands per rank (pJ) (Joule)
system.mem_ctrls.dram.rank0.actBackEnergy     13514130                       # Energy for active background per rank (pJ) (Joule)
system.mem_ctrls.dram.rank0.preBackEnergy        75360                       # Energy for precharge background per rank (pJ) (Joule)
system.mem_ctrls.dram.rank0.actPowerDownEnergy            0                       # Energy for active power-down per rank (pJ) (Joule)
system.mem_ctrls.dram.rank0.prePowerDownEnergy            0                       # Energy for precharge power-down per rank (pJ) (Joule)
system.mem_ctrls.dram.rank0.selfRefreshEnergy            0                       # Energy for self refresh per rank (pJ) (Joule)
system.mem_ctrls.dram.rank0.totalEnergy      22040430                       # Total energy per rank (pJ) (Joule)
system.mem_ctrls.dram.rank0.averagePower   738.793618                       # Core power per rank (mW) (Watt)
system.mem_ctrls.dram.rank0.totalIdleTime            0                       # Total Idle time Per DRAM Rank (Tick)
system.mem_ctrls.dram.rank0.pwrStateTime::IDLE        86000                       # Time in different power states (Tick)
system.mem_ctrls.dram.rank0.pwrStateTime::REF      1040000                       # Time in different power states (Tick)
system.mem_ctrls.dram.rank0.pwrStateTime::SREF            0                       # Time in different power states (Tick)
system.mem_ctrls.dram.rank0.pwrStateTime::PRE_PDN            0                       # Time in different power states (Tick)
system.mem_ctrls.dram.rank0.pwrStateTime::ACT     28707000                       # Time in different power states (Tick)
system.mem_ctrls.dram.rank0.pwrStateTime::ACT_PDN            0                       # Time in different power states (Tick)
system.mem_ctrls.dram.rank1.actEnergy         1256640                       # Energy for activate commands per rank (pJ) (Joule)
system.mem_ctrls.dram.rank1.preEnergy          675510                       # Energy for precharge commands per rank (pJ) (Joule)
system.mem_ctrls.dram.rank1.readEnergy        1920660                       # Energy for read commands per rank (pJ) (Joule)
system.mem_ctrls.dram.rank1.writeEnergy       1179720                       # Energy for write commands per rank (pJ) (Joule)
system.mem_ctrls.dram.rank1.refreshEnergy 2458560.000000                       # Energy for refresh commands per rank (pJ) (Joule)
system.mem_ctrls.dram.rank1.actBackEnergy     13389870                       # Energy for active background per rank (pJ) (Joule)
system.mem_ctrls.dram.rank1.preBackEnergy       180000                       # Energy for precharge background per rank (pJ) (Joule)
system.mem_ctrls.dram.rank1.actPowerDownEnergy            0                       # Energy for active power-down per rank (pJ) (Joule)
system.mem_ctrls.dram.rank1.prePowerDownEnergy            0                       # Energy for precharge power-down per rank (pJ) (Joule)
system.mem_ctrls.dram.rank1.selfRefreshEnergy            0                       # Energy for self refresh per rank (pJ) (Joule)
system.mem_ctrls.dram.rank1.totalEnergy      21060960                       # Total energy per rank (pJ) (Joule)
system.mem_ctrls.dram.rank1.averagePower   705.961854                       # Core power per rank (mW) (Watt)
system.mem_ctrls.dram.rank1.totalIdleTime            0                       # Total Idle time Per DRAM Rank (Tick)
system.mem_ctrls.dram.rank1.pwrStateTime::IDLE       358000                       # Time in different power states (Tick)
system.mem_ctrls.dram.rank1.pwrStateTime::REF      1040000                       # Time in different power states (Tick)
system.mem_ctrls.dram.rank1.pwrStateTime::SREF            0                       # Time in different power states (Tick)
system.mem_ctrls.dram.rank1.pwrStateTime::PRE_PDN            0                       # Time in different power states (Tick)
system.mem_ctrls.dram.rank1.pwrStateTime::ACT     28435000                       # Time in different power states (Tick)
system.mem_ctrls.dram.rank1.pwrStateTime::ACT_PDN            0                       # Time in different power states (Tick)
system.mem_ctrls.power_state.pwrStateResidencyTicks::UNDEFINED     29833000                       # Cumulative time (in ticks) in various power states (Tick)
system.membus.transDist::ReadResp                 513                       # Transaction distribution (Count)
system.membus.transDist::WritebackDirty           552                       # Transaction distribution (Count)
system.membus.transDist::CleanEvict               158                       # Transaction distribution (Count)
system.membus.transDist::ReadExReq                 25                       # Transaction distribution (Count)
system.membus.transDist::ReadExResp                25                       # Transaction distribution (Count)
system.membus.transDist::ReadSharedReq            510                       # Transaction distribution (Count)
system.membus.pktCount_system.l2.mem_side_port::system.mem_ctrls.port         1783                       # Packet count per connected requestor and responder (Count)
system.membus.pktCount::total                    1783                       # Packet count per connected requestor and responder (Count)
system.membus.pktSize_system.l2.mem_side_port::system.mem_ctrls.port        69760                       # Cumulative packet size per connected requestor and responder (Byte)
system.membus.pktSize::total                    69760                       # Cumulative packet size per connected requestor and responder (Byte)
system.membus.snoops                                0                       # Total snoops (Count)
system.membus.snoopTraffic                          0                       # Total snoop traffic (Byte)
system.membus.snoopFanout::samples                535                       # Request fanout histogram (Count)
system.membus.snoopFanout::mean                     0                       # Request fanout histogram (Count)
system.membus.snoopFanout::stdev                    0                       # Request fanout histogram (Count)
system.membus.snoopFanout::underflows               0      0.00%      0.00% # Request fanout histogram (Count)
system.membus.snoopFanout::0                      535    100.00%    100.00% # Request fanout histogram (Count)
system.membus.snoopFanout::1                        0      0.00%    100.00% # Request fanout histogram (Count)
system.membus.snoopFanout::overflows                0      0.00%    100.00% # Request fanout histogram (Count)
system.membus.snoopFanout::min_value                0                       # Request fanout histogram (Count)
system.membus.snoopFanout::max_value                0                       # Request fanout histogram (Count)
system.membus.snoopFanout::total                  535                       # Request fanout histogram (Count)
system.membus.power_state.pwrStateResidencyTicks::UNDEFINED     29833000                       # Cumulative time (in ticks) in various power states (Tick)
system.membus.reqLayer0.occupancy             3570000                       # Layer occupancy (ticks) (Tick)
system.membus.reqLayer0.utilization               0.1                       # Layer utilization (Ratio)
system.membus.respLayer1.occupancy            2889750                       # Layer occupancy (ticks) (Tick)
system.membus.respLayer1.utilization              0.1                       # Layer utilization (Ratio)
system.membus.snoop_filter.totRequests           1245                       # Total number of requests made to the snoop filter. (Count)
system.membus.snoop_filter.hitSingleRequests          710                       # Number of requests hitting in the snoop filter with a single holder of the requested data. (Count)
system.membus.snoop_filter.hitMultiRequests            0                       # Number of requests hitting in the snoop filter with multiple (>1) holders of the requested data. (Count)
system.membus.snoop_filter.totSnoops                0                       # Total number of snoops made to the snoop filter. (Count)
system.membus.snoop_filter.hitSingleSnoops            0                       # Number of snoops hitting in the snoop filter with a single holder of the requested data. (Count)
system.membus.snoop_filter.hitMultiSnoops            0                       # Number of snoops hitting in the snoop filter with multiple (>1) holders of the requested data. (Count)
system.tol2bus.transDist::ReadResp                539                       # Transaction distribution (Count)
system.tol2bus.transDist::WritebackDirty          645                       # Transaction distribution (Count)
system.tol2bus.transDist::WritebackClean          222                       # Transaction distribution (Count)
system.tol2bus.transDist::CleanEvict              410                       # Transaction distribution (Count)
system.tol2bus.transDist::ReadExReq                25                       # Transaction distribution (Count)
system.tol2bus.transDist::ReadExResp               25                       # Transaction distribution (Count)
system.tol2bus.transDist::ReadCleanReq            223                       # Transaction distribution (Count)
system.tol2bus.transDist::ReadSharedReq           313                       # Transaction distribution (Count)
system.tol2bus.pktCount_system.cpu.icache.mem_side_port::system.l2.cpu_side_port          667                       # Packet count per connected requestor and responder (Count)
system.tol2bus.pktCount_system.cpu.dcache.mem_side_port::system.l2.cpu_side_port         1022                       # Packet count per connected requestor and responder (Count)
system.tol2bus.pktCount::total                   1689                       # Packet count per connected requestor and responder (Count)
system.tol2bus.pktSize_system.cpu.icache.mem_side_port::system.l2.cpu_side_port        28416                       # Cumulative packet size per connected requestor and responder (Byte)
system.tol2bus.pktSize_system.cpu.dcache.mem_side_port::system.l2.cpu_side_port        27840                       # Cumulative packet size per connected requestor and responder (Byte)
system.tol2bus.pktSize::total                   56256                       # Cumulative packet size per connected requestor and responder (Byte)
system.tol2bus.snoops                             713                       # Total snoops (Count)
system.tol2bus.snoopTraffic                     35328                       # Total snoop traffic (Byte)
system.tol2bus.snoopFanout::samples              1274                       # Request fanout histogram (Count)
system.tol2bus.snoopFanout::mean             0.003140                       # Request fanout histogram (Count)
system.tol2bus.snoopFanout::stdev            0.055967                       # Request fanout histogram (Count)
system.tol2bus.snoopFanout::underflows              0      0.00%      0.00% # Request fanout histogram (Count)
system.tol2bus.snoopFanout::0                    1270     99.69%     99.69% # Request fanout histogram (Count)
system.tol2bus.snoopFanout::1                       4      0.31%    100.00% # Request fanout histogram (Count)
system.tol2bus.snoopFanout::2                       0      0.00%    100.00% # Request fanout histogram (Count)
system.tol2bus.snoopFanout::overflows               0      0.00%    100.00% # Request fanout histogram (Count)
system.tol2bus.snoopFanout::min_value               0                       # Request fanout histogram (Count)
system.tol2bus.snoopFanout::max_value               1                       # Request fanout histogram (Count)
system.tol2bus.snoopFanout::total                1274                       # Request fanout histogram (Count)
system.tol2bus.power_state.pwrStateResidencyTicks::UNDEFINED     29833000                       # Cumulative time (in ticks) in various power states (Tick)
system.tol2bus.reqLayer0.occupancy             877500                       # Layer occupancy (ticks) (Tick)
system.tol2bus.reqLayer0.utilization              0.0                       # Layer utilization (Ratio)
system.tol2bus.respLayer0.occupancy            333000                       # Layer occupancy (ticks) (Tick)
system.tol2bus.respLayer0.utilization             0.0                       # Layer utilization (Ratio)
system.tol2bus.respLayer1.occupancy            513000                       # Layer occupancy (ticks) (Tick)
system.tol2bus.respLayer1.utilization             0.0                       # Layer utilization (Ratio)
system.tol2bus.snoop_filter.totRequests          1125                       # Total number of requests made to the snoop filter. (Count)
system.tol2bus.snoop_filter.hitSingleRequests          564                       # Number of requests hitting in the snoop filter with a single holder of the requested data. (Count)
system.tol2bus.snoop_filter.hitMultiRequests            0                       # Number of requests hitting in the snoop filter with multiple (>1) holders of the requested data. (Count)
system.tol2bus.snoop_filter.totSnoops               4                       # Total number of snoops made to the snoop filter. (Count)
system.tol2bus.snoop_filter.hitSingleSnoops            4                       # Number of snoops hitting in the snoop filter with a single holder of the requested data. (Count)
system.tol2bus.snoop_filter.hitMultiSnoops            0                       # Number of snoops hitting in the snoop filter with multiple (>1) holders of the requested data. (Count)
system.voltage_domain.voltage                       1                       # Voltage in Volts (Volt)
system.workload.inst.arm                            0                       # number of arm instructions executed (Count)
system.workload.inst.quiesce                        0                       # number of quiesce instructions executed (Count)

---------- End Simulation Statistics   ----------
