
---------- Begin Simulation Statistics ----------
simSeconds                                   0.004702                       # Number of seconds simulated (Second)
simTicks                                   4702377000                       # Number of ticks simulated (Tick)
finalTick                                  4702377000                       # Number of ticks from beginning of simulation (restored from checkpoints and never reset) (Tick)
simFreq                                  1000000000000                       # The number of ticks per simulated second ((Tick/Second))
hostSeconds                                     39.60                       # Real time elapsed on the host (Second)
hostTickRate                                118753781                       # The number of ticks simulated per host second (ticks/s) ((Tick/Second))
hostMemory                                     681144                       # Number of bytes of host memory used (Byte)
simInsts                                     10854510                       # Number of instructions simulated (Count)
simOps                                       11126095                       # Number of ops (including micro ops) simulated (Count)
hostInstRate                                   274119                       # Simulator instruction rate (inst/s) ((Count/Second))
hostOpRate                                     280977                       # Simulator op (including micro ops) rate (op/s) ((Count/Second))
system.clk_domain.clock                          1000                       # Clock period in ticks (Tick)
system.cpu.numCycles                          9404755                       # Number of cpu cycles simulated (Cycle)
system.cpu.numWorkItemsStarted                      0                       # Number of work items this cpu started (Count)
system.cpu.numWorkItemsCompleted                    0                       # Number of work items this cpu completed (Count)
system.cpu.instsAdded                        11795539                       # Number of instructions added to the IQ (excludes non-spec) (Count)
system.cpu.nonSpecInstsAdded                      384                       # Number of non-speculative instructions added to the IQ (Count)
system.cpu.instsIssued                       11588634                       # Number of instructions issued (Count)
system.cpu.squashedInstsIssued                   5703                       # Number of squashed instructions issued (Count)
system.cpu.squashedInstsExamined               669827                       # Number of squashed instructions iterated over during squash; mainly for profiling (Count)
system.cpu.squashedOperandsExamined            542837                       # Number of squashed operands that are examined and possibly removed from graph (Count)
system.cpu.squashedNonSpecRemoved                 124                       # Number of squashed non-spec instructions that were removed (Count)
system.cpu.numIssuedDist::samples             9261319                       # Number of insts issued each cycle (Count)
system.cpu.numIssuedDist::mean               1.251294                       # Number of insts issued each cycle (Count)
system.cpu.numIssuedDist::stdev              2.332356                       # Number of insts issued each cycle (Count)
system.cpu.numIssuedDist::underflows                0      0.00%      0.00% # Number of insts issued each cycle (Count)
system.cpu.numIssuedDist::0                   6517718     70.38%     70.38% # Number of insts issued each cycle (Count)
system.cpu.numIssuedDist::1                    488706      5.28%     75.65% # Number of insts issued each cycle (Count)
system.cpu.numIssuedDist::2                    352487      3.81%     79.46% # Number of insts issued each cycle (Count)
system.cpu.numIssuedDist::3                    328341      3.55%     83.00% # Number of insts issued each cycle (Count)
system.cpu.numIssuedDist::4                    409267      4.42%     87.42% # Number of insts issued each cycle (Count)
system.cpu.numIssuedDist::5                    260596      2.81%     90.24% # Number of insts issued each cycle (Count)
system.cpu.numIssuedDist::6                    275791      2.98%     93.21% # Number of insts issued each cycle (Count)
system.cpu.numIssuedDist::7                    212167      2.29%     95.51% # Number of insts issued each cycle (Count)
system.cpu.numIssuedDist::8                    416246      4.49%    100.00% # Number of insts issued each cycle (Count)
system.cpu.numIssuedDist::overflows                 0      0.00%    100.00% # Number of insts issued each cycle (Count)
system.cpu.numIssuedDist::min_value                 0                       # Number of insts issued each cycle (Count)
system.cpu.numIssuedDist::max_value                 8                       # Number of insts issued each cycle (Count)
system.cpu.numIssuedDist::total               9261319                       # Number of insts issued each cycle (Count)
system.cpu.statFuBusy::No_OpClass                   0      0.00%      0.00% # attempts to use FU when none available (Count)
system.cpu.statFuBusy::IntAlu                   51826     17.15%     17.15% # attempts to use FU when none available (Count)
system.cpu.statFuBusy::IntMult                      4      0.00%     17.15% # attempts to use FU when none available (Count)
system.cpu.statFuBusy::IntDiv                    1192      0.39%     17.54% # attempts to use FU when none available (Count)
system.cpu.statFuBusy::FloatAdd                     0      0.00%     17.54% # attempts to use FU when none available (Count)
system.cpu.statFuBusy::FloatCmp                     0      0.00%     17.54% # attempts to use FU when none available (Count)
system.cpu.statFuBusy::FloatCvt                     0      0.00%     17.54% # attempts to use FU when none available (Count)
system.cpu.statFuBusy::FloatMult                    0      0.00%     17.54% # attempts to use FU when none available (Count)
system.cpu.statFuBusy::FloatMultAcc                 0      0.00%     17.54% # attempts to use FU when none available (Count)
system.cpu.statFuBusy::FloatDiv                     0      0.00%     17.54% # attempts to use FU when none available (Count)
system.cpu.statFuBusy::FloatMisc                    0      0.00%     17.54% # attempts to use FU when none available (Count)
system.cpu.statFuBusy::FloatSqrt                    0      0.00%     17.54% # attempts to use FU when none available (Count)
system.cpu.statFuBusy::SimdAdd                      0      0.00%     17.54% # attempts to use FU when none available (Count)
system.cpu.statFuBusy::SimdAddAcc                   0      0.00%     17.54% # attempts to use FU when none available (Count)
system.cpu.statFuBusy::SimdAlu                     30      0.01%     17.55% # attempts to use FU when none available (Count)
system.cpu.statFuBusy::SimdCmp                     17      0.01%     17.56% # attempts to use FU when none available (Count)
system.cpu.statFuBusy::SimdCvt                      0      0.00%     17.56% # attempts to use FU when none available (Count)
system.cpu.statFuBusy::SimdMisc                     0      0.00%     17.56% # attempts to use FU when none available (Count)
system.cpu.statFuBusy::SimdMult                101657     33.63%     51.19% # attempts to use FU when none available (Count)
system.cpu.statFuBusy::SimdMultAcc             108715     35.97%     87.15% # attempts to use FU when none available (Count)
system.cpu.statFuBusy::SimdShift                    0      0.00%     87.15% # attempts to use FU when none available (Count)
system.cpu.statFuBusy::SimdShiftAcc                 0      0.00%     87.15% # attempts to use FU when none available (Count)
system.cpu.statFuBusy::SimdDiv                      0      0.00%     87.15% # attempts to use FU when none available (Count)
system.cpu.statFuBusy::SimdSqrt                     0      0.00%     87.15% # attempts to use FU when none available (Count)
system.cpu.statFuBusy::SimdFloatAdd                 0      0.00%     87.15% # attempts to use FU when none available (Count)
system.cpu.statFuBusy::SimdFloatAlu                 0      0.00%     87.15% # attempts to use FU when none available (Count)
system.cpu.statFuBusy::SimdFloatCmp                 0      0.00%     87.15% # attempts to use FU when none available (Count)
system.cpu.statFuBusy::SimdFloatCvt                 0      0.00%     87.15% # attempts to use FU when none available (Count)
system.cpu.statFuBusy::SimdFloatDiv                 0      0.00%     87.15% # attempts to use FU when none available (Count)
system.cpu.statFuBusy::SimdFloatMisc                0      0.00%     87.15% # attempts to use FU when none available (Count)
system.cpu.statFuBusy::SimdFloatMult                0      0.00%     87.15% # attempts to use FU when none available (Count)
system.cpu.statFuBusy::SimdFloatMultAcc             0      0.00%     87.15% # attempts to use FU when none available (Count)
system.cpu.statFuBusy::SimdFloatSqrt                0      0.00%     87.15% # attempts to use FU when none available (Count)
system.cpu.statFuBusy::SimdReduceAdd                0      0.00%     87.15% # attempts to use FU when none available (Count)
system.cpu.statFuBusy::SimdReduceAlu                0      0.00%     87.15% # attempts to use FU when none available (Count)
system.cpu.statFuBusy::SimdReduceCmp                0      0.00%     87.15% # attempts to use FU when none available (Count)
system.cpu.statFuBusy::SimdFloatReduceAdd            0      0.00%     87.15% # attempts to use FU when none available (Count)
system.cpu.statFuBusy::SimdFloatReduceCmp            0      0.00%     87.15% # attempts to use FU when none available (Count)
system.cpu.statFuBusy::SimdAes                      0      0.00%     87.15% # attempts to use FU when none available (Count)
system.cpu.statFuBusy::SimdAesMix                   0      0.00%     87.15% # attempts to use FU when none available (Count)
system.cpu.statFuBusy::SimdSha1Hash                 0      0.00%     87.15% # attempts to use FU when none available (Count)
system.cpu.statFuBusy::SimdSha1Hash2                0      0.00%     87.15% # attempts to use FU when none available (Count)
system.cpu.statFuBusy::SimdSha256Hash               0      0.00%     87.15% # attempts to use FU when none available (Count)
system.cpu.statFuBusy::SimdSha256Hash2              0      0.00%     87.15% # attempts to use FU when none available (Count)
system.cpu.statFuBusy::SimdShaSigma2                0      0.00%     87.15% # attempts to use FU when none available (Count)
system.cpu.statFuBusy::SimdShaSigma3                0      0.00%     87.15% # attempts to use FU when none available (Count)
system.cpu.statFuBusy::SimdPredAlu                  0      0.00%     87.15% # attempts to use FU when none available (Count)
system.cpu.statFuBusy::MemRead                  23851      7.89%     95.04% # attempts to use FU when none available (Count)
system.cpu.statFuBusy::MemWrite                 14978      4.96%    100.00% # attempts to use FU when none available (Count)
system.cpu.statFuBusy::FloatMemRead                 0      0.00%    100.00% # attempts to use FU when none available (Count)
system.cpu.statFuBusy::FloatMemWrite                0      0.00%    100.00% # attempts to use FU when none available (Count)
system.cpu.statFuBusy::IprAccess                    0      0.00%    100.00% # attempts to use FU when none available (Count)
system.cpu.statFuBusy::InstPrefetch                 0      0.00%    100.00% # attempts to use FU when none available (Count)
system.cpu.statIssuedInstType_0::No_OpClass          929      0.01%      0.01% # Number of instructions issued per FU type, per thread (Count)
system.cpu.statIssuedInstType_0::IntAlu       7615583     65.72%     65.72% # Number of instructions issued per FU type, per thread (Count)
system.cpu.statIssuedInstType_0::IntMult         7635      0.07%     65.79% # Number of instructions issued per FU type, per thread (Count)
system.cpu.statIssuedInstType_0::IntDiv          2712      0.02%     65.81% # Number of instructions issued per FU type, per thread (Count)
system.cpu.statIssuedInstType_0::FloatAdd            0      0.00%     65.81% # Number of instructions issued per FU type, per thread (Count)
system.cpu.statIssuedInstType_0::FloatCmp            0      0.00%     65.81% # Number of instructions issued per FU type, per thread (Count)
system.cpu.statIssuedInstType_0::FloatCvt            0      0.00%     65.81% # Number of instructions issued per FU type, per thread (Count)
system.cpu.statIssuedInstType_0::FloatMult            0      0.00%     65.81% # Number of instructions issued per FU type, per thread (Count)
system.cpu.statIssuedInstType_0::FloatMultAcc            0      0.00%     65.81% # Number of instructions issued per FU type, per thread (Count)
system.cpu.statIssuedInstType_0::FloatDiv            0      0.00%     65.81% # Number of instructions issued per FU type, per thread (Count)
system.cpu.statIssuedInstType_0::FloatMisc            2      0.00%     65.81% # Number of instructions issued per FU type, per thread (Count)
system.cpu.statIssuedInstType_0::FloatSqrt            0      0.00%     65.81% # Number of instructions issued per FU type, per thread (Count)
system.cpu.statIssuedInstType_0::SimdAdd       378396      3.27%     69.08% # Number of instructions issued per FU type, per thread (Count)
system.cpu.statIssuedInstType_0::SimdAddAcc            0      0.00%     69.08% # Number of instructions issued per FU type, per thread (Count)
system.cpu.statIssuedInstType_0::SimdAlu          575      0.00%     69.08% # Number of instructions issued per FU type, per thread (Count)
system.cpu.statIssuedInstType_0::SimdCmp          125      0.00%     69.08% # Number of instructions issued per FU type, per thread (Count)
system.cpu.statIssuedInstType_0::SimdCvt            0      0.00%     69.08% # Number of instructions issued per FU type, per thread (Count)
system.cpu.statIssuedInstType_0::SimdMisc       378584      3.27%     72.35% # Number of instructions issued per FU type, per thread (Count)
system.cpu.statIssuedInstType_0::SimdMult       400499      3.46%     75.81% # Number of instructions issued per FU type, per thread (Count)
system.cpu.statIssuedInstType_0::SimdMultAcc      1159973     10.01%     85.82% # Number of instructions issued per FU type, per thread (Count)
system.cpu.statIssuedInstType_0::SimdShift            0      0.00%     85.82% # Number of instructions issued per FU type, per thread (Count)
system.cpu.statIssuedInstType_0::SimdShiftAcc            0      0.00%     85.82% # Number of instructions issued per FU type, per thread (Count)
system.cpu.statIssuedInstType_0::SimdDiv            0      0.00%     85.82% # Number of instructions issued per FU type, per thread (Count)
system.cpu.statIssuedInstType_0::SimdSqrt            0      0.00%     85.82% # Number of instructions issued per FU type, per thread (Count)
system.cpu.statIssuedInstType_0::SimdFloatAdd            0      0.00%     85.82% # Number of instructions issued per FU type, per thread (Count)
system.cpu.statIssuedInstType_0::SimdFloatAlu            0      0.00%     85.82% # Number of instructions issued per FU type, per thread (Count)
system.cpu.statIssuedInstType_0::SimdFloatCmp            0      0.00%     85.82% # Number of instructions issued per FU type, per thread (Count)
system.cpu.statIssuedInstType_0::SimdFloatCvt            0      0.00%     85.82% # Number of instructions issued per FU type, per thread (Count)
system.cpu.statIssuedInstType_0::SimdFloatDiv            0      0.00%     85.82% # Number of instructions issued per FU type, per thread (Count)
system.cpu.statIssuedInstType_0::SimdFloatMisc            0      0.00%     85.82% # Number of instructions issued per FU type, per thread (Count)
system.cpu.statIssuedInstType_0::SimdFloatMult            0      0.00%     85.82% # Number of instructions issued per FU type, per thread (Count)
system.cpu.statIssuedInstType_0::SimdFloatMultAcc            0      0.00%     85.82% # Number of instructions issued per FU type, per thread (Count)
system.cpu.statIssuedInstType_0::SimdFloatSqrt            0      0.00%     85.82% # Number of instructions issued per FU type, per thread (Count)
system.cpu.statIssuedInstType_0::SimdReduceAdd            0      0.00%     85.82% # Number of instructions issued per FU type, per thread (Count)
system.cpu.statIssuedInstType_0::SimdReduceAlu            0      0.00%     85.82% # Number of instructions issued per FU type, per thread (Count)
system.cpu.statIssuedInstType_0::SimdReduceCmp            0      0.00%     85.82% # Number of instructions issued per FU type, per thread (Count)
system.cpu.statIssuedInstType_0::SimdFloatReduceAdd            0      0.00%     85.82% # Number of instructions issued per FU type, per thread (Count)
system.cpu.statIssuedInstType_0::SimdFloatReduceCmp            0      0.00%     85.82% # Number of instructions issued per FU type, per thread (Count)
system.cpu.statIssuedInstType_0::SimdAes            0      0.00%     85.82% # Number of instructions issued per FU type, per thread (Count)
system.cpu.statIssuedInstType_0::SimdAesMix            0      0.00%     85.82% # Number of instructions issued per FU type, per thread (Count)
system.cpu.statIssuedInstType_0::SimdSha1Hash            0      0.00%     85.82% # Number of instructions issued per FU type, per thread (Count)
system.cpu.statIssuedInstType_0::SimdSha1Hash2            0      0.00%     85.82% # Number of instructions issued per FU type, per thread (Count)
system.cpu.statIssuedInstType_0::SimdSha256Hash            0      0.00%     85.82% # Number of instructions issued per FU type, per thread (Count)
system.cpu.statIssuedInstType_0::SimdSha256Hash2            0      0.00%     85.82% # Number of instructions issued per FU type, per thread (Count)
system.cpu.statIssuedInstType_0::SimdShaSigma2            0      0.00%     85.82% # Number of instructions issued per FU type, per thread (Count)
system.cpu.statIssuedInstType_0::SimdShaSigma3            0      0.00%     85.82% # Number of instructions issued per FU type, per thread (Count)
system.cpu.statIssuedInstType_0::SimdPredAlu            0      0.00%     85.82% # Number of instructions issued per FU type, per thread (Count)
system.cpu.statIssuedInstType_0::MemRead      1028272      8.87%     94.69% # Number of instructions issued per FU type, per thread (Count)
system.cpu.statIssuedInstType_0::MemWrite       615349      5.31%    100.00% # Number of instructions issued per FU type, per thread (Count)
system.cpu.statIssuedInstType_0::FloatMemRead            0      0.00%    100.00% # Number of instructions issued per FU type, per thread (Count)
system.cpu.statIssuedInstType_0::FloatMemWrite            0      0.00%    100.00% # Number of instructions issued per FU type, per thread (Count)
system.cpu.statIssuedInstType_0::IprAccess            0      0.00%    100.00% # Number of instructions issued per FU type, per thread (Count)
system.cpu.statIssuedInstType_0::InstPrefetch            0      0.00%    100.00% # Number of instructions issued per FU type, per thread (Count)
system.cpu.statIssuedInstType_0::total       11588634                       # Number of instructions issued per FU type, per thread (Count)
system.cpu.issueRate                         1.232210                       # Inst issue rate ((Count/Cycle))
system.cpu.fuBusy                              302270                       # FU busy when requested (Count)
system.cpu.fuBusyRate                        0.026083                       # FU busy rate (busy events/executed inst) ((Count/Count))
system.cpu.intInstQueueReads                 27817582                       # Number of integer instruction queue reads (Count)
system.cpu.intInstQueueWrites                10064508                       # Number of integer instruction queue writes (Count)
system.cpu.intInstQueueWakeupAccesses         9123138                       # Number of integer instruction queue wakeup accesses (Count)
system.cpu.fpInstQueueReads                         0                       # Number of floating instruction queue reads (Count)
system.cpu.fpInstQueueWrites                        0                       # Number of floating instruction queue writes (Count)
system.cpu.fpInstQueueWakeupAccesses                0                       # Number of floating instruction queue wakeup accesses (Count)
system.cpu.vecInstQueueReads                  4928978                       # Number of vector instruction queue reads (Count)
system.cpu.vecInstQueueWrites                 2401391                       # Number of vector instruction queue writes (Count)
system.cpu.vecInstQueueWakeupAccesses         2354489                       # Number of vector instruction queue wakeup accesses (Count)
system.cpu.intAluAccesses                     9320625                       # Number of integer alu accesses (Count)
system.cpu.fpAluAccesses                            0                       # Number of floating point alu accesses (Count)
system.cpu.vecAluAccesses                     2569350                       # Number of vector alu accesses (Count)
system.cpu.numInsts                          11556961                       # Number of executed instructions (Count)
system.cpu.numLoadInsts                       1015730                       # Number of load instructions executed (Count)
system.cpu.numSquashedInsts                     31673                       # Number of squashed instructions skipped in execute (Count)
system.cpu.numSwp                                   0                       # Number of swp insts executed (Count)
system.cpu.numNop                                 440                       # Number of nop insts executed (Count)
system.cpu.numRefs                            1629252                       # Number of memory reference insts executed (Count)
system.cpu.numBranches                        2407688                       # Number of branches executed (Count)
system.cpu.numStoreInsts                       613522                       # Number of stores executed (Count)
system.cpu.numRate                           1.228842                       # Inst execution rate ((Count/Cycle))
system.cpu.timesIdled                            1494                       # Number of times that the entire CPU went into an idle state and unscheduled itself (Count)
system.cpu.idleCycles                          143436                       # Total number of cycles that the CPU has spent unscheduled due to idling (Cycle)
system.cpu.committedInsts                    10854510                       # Number of Instructions Simulated (Count)
system.cpu.committedOps                      11126095                       # Number of Ops (including micro ops) Simulated (Count)
system.cpu.cpi                               0.866438                       # CPI: Cycles Per Instruction ((Cycle/Count))
system.cpu.totalCpi                          0.866438                       # CPI: Total CPI of All Threads ((Cycle/Count))
system.cpu.ipc                               1.154151                       # IPC: Instructions Per Cycle ((Count/Cycle))
system.cpu.totalIpc                          1.154151                       # IPC: Total IPC of All Threads ((Count/Cycle))
system.cpu.intRegfileReads                   11650677                       # Number of integer regfile reads (Count)
system.cpu.intRegfileWrites                   3915703                       # Number of integer regfile writes (Count)
system.cpu.vecRegfileReads                    7012528                       # number of vector regfile reads (Count)
system.cpu.ccRegfileReads                     7959327                       # number of cc regfile reads (Count)
system.cpu.ccRegfileWrites                    7963899                       # number of cc regfile writes (Count)
system.cpu.miscRegfileReads                   5025256                       # number of misc regfile reads (Count)
system.cpu.miscRegfileWrites                      201                       # number of misc regfile writes (Count)
system.cpu.MemDepUnit__0.insertedLoads        1006113                       # Number of loads inserted to the mem dependence unit. (Count)
system.cpu.MemDepUnit__0.insertedStores        626108                       # Number of stores inserted to the mem dependence unit. (Count)
system.cpu.MemDepUnit__0.conflictingLoads        30885                       # Number of conflicting loads. (Count)
system.cpu.MemDepUnit__0.conflictingStores        17670                       # Number of conflicting stores. (Count)
system.cpu.MemDepUnit__1.insertedLoads              0                       # Number of loads inserted to the mem dependence unit. (Count)
system.cpu.MemDepUnit__1.insertedStores             0                       # Number of stores inserted to the mem dependence unit. (Count)
system.cpu.MemDepUnit__1.conflictingLoads            0                       # Number of conflicting loads. (Count)
system.cpu.MemDepUnit__1.conflictingStores            0                       # Number of conflicting stores. (Count)
system.cpu.MemDepUnit__2.insertedLoads              0                       # Number of loads inserted to the mem dependence unit. (Count)
system.cpu.MemDepUnit__2.insertedStores             0                       # Number of stores inserted to the mem dependence unit. (Count)
system.cpu.MemDepUnit__2.conflictingLoads            0                       # Number of conflicting loads. (Count)
system.cpu.MemDepUnit__2.conflictingStores            0                       # Number of conflicting stores. (Count)
system.cpu.MemDepUnit__3.insertedLoads              0                       # Number of loads inserted to the mem dependence unit. (Count)
system.cpu.MemDepUnit__3.insertedStores             0                       # Number of stores inserted to the mem dependence unit. (Count)
system.cpu.MemDepUnit__3.conflictingLoads            0                       # Number of conflicting loads. (Count)
system.cpu.MemDepUnit__3.conflictingStores            0                       # Number of conflicting stores. (Count)
system.cpu.branchPred.lookups                 2567700                       # Number of BP lookups (Count)
system.cpu.branchPred.condPredicted           2493174                       # Number of conditional branches predicted (Count)
system.cpu.branchPred.condIncorrect             19338                       # Number of conditional branches incorrect (Count)
system.cpu.branchPred.BTBLookups               360391                       # Number of BTB lookups (Count)
system.cpu.branchPred.BTBUpdates                 9892                       # Number of BTB updates (Count)
system.cpu.branchPred.BTBHits                  353664                       # Number of BTB hits (Count)
system.cpu.branchPred.BTBHitRatio            0.981334                       # BTB Hit Ratio (Ratio)
system.cpu.branchPred.RASUsed                   17581                       # Number of times the RAS was used to get a target. (Count)
system.cpu.branchPred.RASIncorrect                 40                       # Number of incorrect RAS predictions. (Count)
system.cpu.branchPred.indirectLookups            6668                       # Number of indirect predictor lookups. (Count)
system.cpu.branchPred.indirectHits               1337                       # Number of indirect target hits. (Count)
system.cpu.branchPred.indirectMisses             5331                       # Number of indirect misses. (Count)
system.cpu.branchPred.indirectMispredicted          667                       # Number of mispredicted indirect branches. (Count)
system.cpu.commit.commitSquashedInsts          655797                       # The number of squashed insts skipped by commit (Count)
system.cpu.commit.commitNonSpecStalls             260                       # The number of times commit has been forced to stall to communicate backwards (Count)
system.cpu.commit.branchMispredicts             19284                       # The number of times a branch was mispredicted (Count)
system.cpu.commit.numCommittedDist::samples      9159677                       # Number of insts commited each cycle (Count)
system.cpu.commit.numCommittedDist::mean     1.214695                       # Number of insts commited each cycle (Count)
system.cpu.commit.numCommittedDist::stdev     2.732847                       # Number of insts commited each cycle (Count)
system.cpu.commit.numCommittedDist::underflows            0      0.00%      0.00% # Number of insts commited each cycle (Count)
system.cpu.commit.numCommittedDist::0         7298020     79.68%     79.68% # Number of insts commited each cycle (Count)
system.cpu.commit.numCommittedDist::1          298737      3.26%     82.94% # Number of insts commited each cycle (Count)
system.cpu.commit.numCommittedDist::2          134375      1.47%     84.40% # Number of insts commited each cycle (Count)
system.cpu.commit.numCommittedDist::3           65019      0.71%     85.11% # Number of insts commited each cycle (Count)
system.cpu.commit.numCommittedDist::4           98078      1.07%     86.18% # Number of insts commited each cycle (Count)
system.cpu.commit.numCommittedDist::5           30543      0.33%     86.52% # Number of insts commited each cycle (Count)
system.cpu.commit.numCommittedDist::6           22176      0.24%     86.76% # Number of insts commited each cycle (Count)
system.cpu.commit.numCommittedDist::7           16245      0.18%     86.94% # Number of insts commited each cycle (Count)
system.cpu.commit.numCommittedDist::8         1196484     13.06%    100.00% # Number of insts commited each cycle (Count)
system.cpu.commit.numCommittedDist::overflows            0      0.00%    100.00% # Number of insts commited each cycle (Count)
system.cpu.commit.numCommittedDist::min_value            0                       # Number of insts commited each cycle (Count)
system.cpu.commit.numCommittedDist::max_value            8                       # Number of insts commited each cycle (Count)
system.cpu.commit.numCommittedDist::total      9159677                       # Number of insts commited each cycle (Count)
system.cpu.commit.instsCommitted             10854629                       # Number of instructions committed (Count)
system.cpu.commit.opsCommitted               11126214                       # Number of ops (including micro ops) committed (Count)
system.cpu.commit.memRefs                     1473540                       # Number of memory references committed (Count)
system.cpu.commit.loads                        890404                       # Number of loads committed (Count)
system.cpu.commit.amos                            100                       # Number of atomic instructions committed (Count)
system.cpu.commit.membars                         108                       # Number of memory barriers committed (Count)
system.cpu.commit.branches                    2345129                       # Number of branches committed (Count)
system.cpu.commit.vectorInstructions          2340055                       # Number of committed Vector instructions. (Count)
system.cpu.commit.floating                          0                       # Number of committed floating point instructions. (Count)
system.cpu.commit.integer                     7377366                       # Number of committed integer instructions. (Count)
system.cpu.commit.functionCalls                 10998                       # Number of function calls committed. (Count)
system.cpu.commit.committedInstType_0::No_OpClass          124      0.00%      0.00% # Class of committed instruction (Count)
system.cpu.commit.committedInstType_0::IntAlu      7340025     65.97%     65.97% # Class of committed instruction (Count)
system.cpu.commit.committedInstType_0::IntMult         7064      0.06%     66.04% # Class of committed instruction (Count)
system.cpu.commit.committedInstType_0::IntDiv         2565      0.02%     66.06% # Class of committed instruction (Count)
system.cpu.commit.committedInstType_0::FloatAdd            0      0.00%     66.06% # Class of committed instruction (Count)
system.cpu.commit.committedInstType_0::FloatCmp            0      0.00%     66.06% # Class of committed instruction (Count)
system.cpu.commit.committedInstType_0::FloatCvt            0      0.00%     66.06% # Class of committed instruction (Count)
system.cpu.commit.committedInstType_0::FloatMult            0      0.00%     66.06% # Class of committed instruction (Count)
system.cpu.commit.committedInstType_0::FloatMultAcc            0      0.00%     66.06% # Class of committed instruction (Count)
system.cpu.commit.committedInstType_0::FloatDiv            0      0.00%     66.06% # Class of committed instruction (Count)
system.cpu.commit.committedInstType_0::FloatMisc            2      0.00%     66.06% # Class of committed instruction (Count)
system.cpu.commit.committedInstType_0::FloatSqrt            0      0.00%     66.06% # Class of committed instruction (Count)
system.cpu.commit.committedInstType_0::SimdAdd       376783      3.39%     69.44% # Class of committed instruction (Count)
system.cpu.commit.committedInstType_0::SimdAddAcc            0      0.00%     69.44% # Class of committed instruction (Count)
system.cpu.commit.committedInstType_0::SimdAlu          505      0.00%     69.45% # Class of committed instruction (Count)
system.cpu.commit.committedInstType_0::SimdCmp           97      0.00%     69.45% # Class of committed instruction (Count)
system.cpu.commit.committedInstType_0::SimdCvt            0      0.00%     69.45% # Class of committed instruction (Count)
system.cpu.commit.committedInstType_0::SimdMisc       376837      3.39%     72.84% # Class of committed instruction (Count)
system.cpu.commit.committedInstType_0::SimdMult       397632      3.57%     76.41% # Class of committed instruction (Count)
system.cpu.commit.committedInstType_0::SimdMultAcc      1151040     10.35%     86.76% # Class of committed instruction (Count)
system.cpu.commit.committedInstType_0::SimdShift            0      0.00%     86.76% # Class of committed instruction (Count)
system.cpu.commit.committedInstType_0::SimdShiftAcc            0      0.00%     86.76% # Class of committed instruction (Count)
system.cpu.commit.committedInstType_0::SimdDiv            0      0.00%     86.76% # Class of committed instruction (Count)
system.cpu.commit.committedInstType_0::SimdSqrt            0      0.00%     86.76% # Class of committed instruction (Count)
system.cpu.commit.committedInstType_0::SimdFloatAdd            0      0.00%     86.76% # Class of committed instruction (Count)
system.cpu.commit.committedInstType_0::SimdFloatAlu            0      0.00%     86.76% # Class of committed instruction (Count)
system.cpu.commit.committedInstType_0::SimdFloatCmp            0      0.00%     86.76% # Class of committed instruction (Count)
system.cpu.commit.committedInstType_0::SimdFloatCvt            0      0.00%     86.76% # Class of committed instruction (Count)
system.cpu.commit.committedInstType_0::SimdFloatDiv            0      0.00%     86.76% # Class of committed instruction (Count)
system.cpu.commit.committedInstType_0::SimdFloatMisc            0      0.00%     86.76% # Class of committed instruction (Count)
system.cpu.commit.committedInstType_0::SimdFloatMult            0      0.00%     86.76% # Class of committed instruction (Count)
system.cpu.commit.committedInstType_0::SimdFloatMultAcc            0      0.00%     86.76% # Class of committed instruction (Count)
system.cpu.commit.committedInstType_0::SimdFloatSqrt            0      0.00%     86.76% # Class of committed instruction (Count)
system.cpu.commit.committedInstType_0::SimdReduceAdd            0      0.00%     86.76% # Class of committed instruction (Count)
system.cpu.commit.committedInstType_0::SimdReduceAlu            0      0.00%     86.76% # Class of committed instruction (Count)
system.cpu.commit.committedInstType_0::SimdReduceCmp            0      0.00%     86.76% # Class of committed instruction (Count)
system.cpu.commit.committedInstType_0::SimdFloatReduceAdd            0      0.00%     86.76% # Class of committed instruction (Count)
system.cpu.commit.committedInstType_0::SimdFloatReduceCmp            0      0.00%     86.76% # Class of committed instruction (Count)
system.cpu.commit.committedInstType_0::SimdAes            0      0.00%     86.76% # Class of committed instruction (Count)
system.cpu.commit.committedInstType_0::SimdAesMix            0      0.00%     86.76% # Class of committed instruction (Count)
system.cpu.commit.committedInstType_0::SimdSha1Hash            0      0.00%     86.76% # Class of committed instruction (Count)
system.cpu.commit.committedInstType_0::SimdSha1Hash2            0      0.00%     86.76% # Class of committed instruction (Count)
system.cpu.commit.committedInstType_0::SimdSha256Hash            0      0.00%     86.76% # Class of committed instruction (Count)
system.cpu.commit.committedInstType_0::SimdSha256Hash2            0      0.00%     86.76% # Class of committed instruction (Count)
system.cpu.commit.committedInstType_0::SimdShaSigma2            0      0.00%     86.76% # Class of committed instruction (Count)
system.cpu.commit.committedInstType_0::SimdShaSigma3            0      0.00%     86.76% # Class of committed instruction (Count)
system.cpu.commit.committedInstType_0::SimdPredAlu            0      0.00%     86.76% # Class of committed instruction (Count)
system.cpu.commit.committedInstType_0::MemRead       890404      8.00%     94.76% # Class of committed instruction (Count)
system.cpu.commit.committedInstType_0::MemWrite       583136      5.24%    100.00% # Class of committed instruction (Count)
system.cpu.commit.committedInstType_0::FloatMemRead            0      0.00%    100.00% # Class of committed instruction (Count)
system.cpu.commit.committedInstType_0::FloatMemWrite            0      0.00%    100.00% # Class of committed instruction (Count)
system.cpu.commit.committedInstType_0::IprAccess            0      0.00%    100.00% # Class of committed instruction (Count)
system.cpu.commit.committedInstType_0::InstPrefetch            0      0.00%    100.00% # Class of committed instruction (Count)
system.cpu.commit.committedInstType_0::total     11126214                       # Class of committed instruction (Count)
system.cpu.commit.commitEligibleSamples       1196484                       # number cycles where commit BW limit reached (Cycle)
system.cpu.dcache.demandHits::cpu.data        1342737                       # number of demand (read+write) hits (Count)
system.cpu.dcache.demandHits::total           1342737                       # number of demand (read+write) hits (Count)
system.cpu.dcache.overallHits::cpu.data       1342737                       # number of overall hits (Count)
system.cpu.dcache.overallHits::total          1342737                       # number of overall hits (Count)
system.cpu.dcache.demandMisses::cpu.data       174688                       # number of demand (read+write) misses (Count)
system.cpu.dcache.demandMisses::total          174688                       # number of demand (read+write) misses (Count)
system.cpu.dcache.overallMisses::cpu.data       174688                       # number of overall misses (Count)
system.cpu.dcache.overallMisses::total         174688                       # number of overall misses (Count)
system.cpu.dcache.demandMissLatency::cpu.data  14315189493                       # number of demand (read+write) miss ticks (Tick)
system.cpu.dcache.demandMissLatency::total  14315189493                       # number of demand (read+write) miss ticks (Tick)
system.cpu.dcache.overallMissLatency::cpu.data  14315189493                       # number of overall miss ticks (Tick)
system.cpu.dcache.overallMissLatency::total  14315189493                       # number of overall miss ticks (Tick)
system.cpu.dcache.demandAccesses::cpu.data      1517425                       # number of demand (read+write) accesses (Count)
system.cpu.dcache.demandAccesses::total       1517425                       # number of demand (read+write) accesses (Count)
system.cpu.dcache.overallAccesses::cpu.data      1517425                       # number of overall (read+write) accesses (Count)
system.cpu.dcache.overallAccesses::total      1517425                       # number of overall (read+write) accesses (Count)
system.cpu.dcache.demandMissRate::cpu.data     0.115121                       # miss rate for demand accesses (Ratio)
system.cpu.dcache.demandMissRate::total      0.115121                       # miss rate for demand accesses (Ratio)
system.cpu.dcache.overallMissRate::cpu.data     0.115121                       # miss rate for overall accesses (Ratio)
system.cpu.dcache.overallMissRate::total     0.115121                       # miss rate for overall accesses (Ratio)
system.cpu.dcache.demandAvgMissLatency::cpu.data 81947.182938                       # average overall miss latency in ticks ((Tick/Count))
system.cpu.dcache.demandAvgMissLatency::total 81947.182938                       # average overall miss latency in ticks ((Tick/Count))
system.cpu.dcache.overallAvgMissLatency::cpu.data 81947.182938                       # average overall miss latency ((Tick/Count))
system.cpu.dcache.overallAvgMissLatency::total 81947.182938                       # average overall miss latency ((Tick/Count))
system.cpu.dcache.blockedCycles::no_mshrs      1051449                       # number of cycles access was blocked (Cycle)
system.cpu.dcache.blockedCycles::no_targets          477                       # number of cycles access was blocked (Cycle)
system.cpu.dcache.blockedCauses::no_mshrs        12540                       # number of times access was blocked (Count)
system.cpu.dcache.blockedCauses::no_targets           11                       # number of times access was blocked (Count)
system.cpu.dcache.avgBlocked::no_mshrs      83.847608                       # average number of cycles each access was blocked ((Cycle/Count))
system.cpu.dcache.avgBlocked::no_targets    43.363636                       # average number of cycles each access was blocked ((Cycle/Count))
system.cpu.dcache.writebacks::writebacks       101249                       # number of writebacks (Count)
system.cpu.dcache.writebacks::total            101249                       # number of writebacks (Count)
system.cpu.dcache.demandMshrHits::cpu.data        50960                       # number of demand (read+write) MSHR hits (Count)
system.cpu.dcache.demandMshrHits::total         50960                       # number of demand (read+write) MSHR hits (Count)
system.cpu.dcache.overallMshrHits::cpu.data        50960                       # number of overall MSHR hits (Count)
system.cpu.dcache.overallMshrHits::total        50960                       # number of overall MSHR hits (Count)
system.cpu.dcache.demandMshrMisses::cpu.data       123728                       # number of demand (read+write) MSHR misses (Count)
system.cpu.dcache.demandMshrMisses::total       123728                       # number of demand (read+write) MSHR misses (Count)
system.cpu.dcache.overallMshrMisses::cpu.data       123728                       # number of overall MSHR misses (Count)
system.cpu.dcache.overallMshrMisses::total       123728                       # number of overall MSHR misses (Count)
system.cpu.dcache.demandMshrMissLatency::cpu.data  10767288204                       # number of demand (read+write) MSHR miss ticks (Tick)
system.cpu.dcache.demandMshrMissLatency::total  10767288204                       # number of demand (read+write) MSHR miss ticks (Tick)
system.cpu.dcache.overallMshrMissLatency::cpu.data  10767288204                       # number of overall MSHR miss ticks (Tick)
system.cpu.dcache.overallMshrMissLatency::total  10767288204                       # number of overall MSHR miss ticks (Tick)
system.cpu.dcache.demandMshrMissRate::cpu.data     0.081538                       # mshr miss ratio for demand accesses (Ratio)
system.cpu.dcache.demandMshrMissRate::total     0.081538                       # mshr miss ratio for demand accesses (Ratio)
system.cpu.dcache.overallMshrMissRate::cpu.data     0.081538                       # mshr miss ratio for overall accesses (Ratio)
system.cpu.dcache.overallMshrMissRate::total     0.081538                       # mshr miss ratio for overall accesses (Ratio)
system.cpu.dcache.demandAvgMshrMissLatency::cpu.data 87023.860436                       # average overall mshr miss latency ((Tick/Count))
system.cpu.dcache.demandAvgMshrMissLatency::total 87023.860436                       # average overall mshr miss latency ((Tick/Count))
system.cpu.dcache.overallAvgMshrMissLatency::cpu.data 87023.860436                       # average overall mshr miss latency ((Tick/Count))
system.cpu.dcache.overallAvgMshrMissLatency::total 87023.860436                       # average overall mshr miss latency ((Tick/Count))
system.cpu.dcache.replacements                 122709                       # number of replacements (Count)
system.cpu.dcache.ReadReq.hits::cpu.data       765378                       # number of ReadReq hits (Count)
system.cpu.dcache.ReadReq.hits::total          765378                       # number of ReadReq hits (Count)
system.cpu.dcache.ReadReq.misses::cpu.data       168997                       # number of ReadReq misses (Count)
system.cpu.dcache.ReadReq.misses::total        168997                       # number of ReadReq misses (Count)
system.cpu.dcache.ReadReq.missLatency::cpu.data  13969212500                       # number of ReadReq miss ticks (Tick)
system.cpu.dcache.ReadReq.missLatency::total  13969212500                       # number of ReadReq miss ticks (Tick)
system.cpu.dcache.ReadReq.accesses::cpu.data       934375                       # number of ReadReq accesses(hits+misses) (Count)
system.cpu.dcache.ReadReq.accesses::total       934375                       # number of ReadReq accesses(hits+misses) (Count)
system.cpu.dcache.ReadReq.missRate::cpu.data     0.180866                       # miss rate for ReadReq accesses (Ratio)
system.cpu.dcache.ReadReq.missRate::total     0.180866                       # miss rate for ReadReq accesses (Ratio)
system.cpu.dcache.ReadReq.avgMissLatency::cpu.data 82659.529459                       # average ReadReq miss latency ((Tick/Count))
system.cpu.dcache.ReadReq.avgMissLatency::total 82659.529459                       # average ReadReq miss latency ((Tick/Count))
system.cpu.dcache.ReadReq.mshrHits::cpu.data        47523                       # number of ReadReq MSHR hits (Count)
system.cpu.dcache.ReadReq.mshrHits::total        47523                       # number of ReadReq MSHR hits (Count)
system.cpu.dcache.ReadReq.mshrMisses::cpu.data       121474                       # number of ReadReq MSHR misses (Count)
system.cpu.dcache.ReadReq.mshrMisses::total       121474                       # number of ReadReq MSHR misses (Count)
system.cpu.dcache.ReadReq.mshrMissLatency::cpu.data  10631970500                       # number of ReadReq MSHR miss ticks (Tick)
system.cpu.dcache.ReadReq.mshrMissLatency::total  10631970500                       # number of ReadReq MSHR miss ticks (Tick)
system.cpu.dcache.ReadReq.mshrMissRate::cpu.data     0.130006                       # mshr miss rate for ReadReq accesses (Ratio)
system.cpu.dcache.ReadReq.mshrMissRate::total     0.130006                       # mshr miss rate for ReadReq accesses (Ratio)
system.cpu.dcache.ReadReq.avgMshrMissLatency::cpu.data 87524.659598                       # average ReadReq mshr miss latency ((Tick/Count))
system.cpu.dcache.ReadReq.avgMshrMissLatency::total 87524.659598                       # average ReadReq mshr miss latency ((Tick/Count))
system.cpu.dcache.SwapReq.hits::cpu.data           95                       # number of SwapReq hits (Count)
system.cpu.dcache.SwapReq.hits::total              95                       # number of SwapReq hits (Count)
system.cpu.dcache.SwapReq.misses::cpu.data            5                       # number of SwapReq misses (Count)
system.cpu.dcache.SwapReq.misses::total             5                       # number of SwapReq misses (Count)
system.cpu.dcache.SwapReq.missLatency::cpu.data       315500                       # number of SwapReq miss ticks (Tick)
system.cpu.dcache.SwapReq.missLatency::total       315500                       # number of SwapReq miss ticks (Tick)
system.cpu.dcache.SwapReq.accesses::cpu.data          100                       # number of SwapReq accesses(hits+misses) (Count)
system.cpu.dcache.SwapReq.accesses::total          100                       # number of SwapReq accesses(hits+misses) (Count)
system.cpu.dcache.SwapReq.missRate::cpu.data     0.050000                       # miss rate for SwapReq accesses (Ratio)
system.cpu.dcache.SwapReq.missRate::total     0.050000                       # miss rate for SwapReq accesses (Ratio)
system.cpu.dcache.SwapReq.avgMissLatency::cpu.data        63100                       # average SwapReq miss latency ((Tick/Count))
system.cpu.dcache.SwapReq.avgMissLatency::total        63100                       # average SwapReq miss latency ((Tick/Count))
system.cpu.dcache.SwapReq.mshrMisses::cpu.data            5                       # number of SwapReq MSHR misses (Count)
system.cpu.dcache.SwapReq.mshrMisses::total            5                       # number of SwapReq MSHR misses (Count)
system.cpu.dcache.SwapReq.mshrMissLatency::cpu.data       310500                       # number of SwapReq MSHR miss ticks (Tick)
system.cpu.dcache.SwapReq.mshrMissLatency::total       310500                       # number of SwapReq MSHR miss ticks (Tick)
system.cpu.dcache.SwapReq.mshrMissRate::cpu.data     0.050000                       # mshr miss rate for SwapReq accesses (Ratio)
system.cpu.dcache.SwapReq.mshrMissRate::total     0.050000                       # mshr miss rate for SwapReq accesses (Ratio)
system.cpu.dcache.SwapReq.avgMshrMissLatency::cpu.data        62100                       # average SwapReq mshr miss latency ((Tick/Count))
system.cpu.dcache.SwapReq.avgMshrMissLatency::total        62100                       # average SwapReq mshr miss latency ((Tick/Count))
system.cpu.dcache.WriteLineReq.misses::cpu.data          131                       # number of WriteLineReq misses (Count)
system.cpu.dcache.WriteLineReq.misses::total          131                       # number of WriteLineReq misses (Count)
system.cpu.dcache.WriteLineReq.missLatency::cpu.data      4174908                       # number of WriteLineReq miss ticks (Tick)
system.cpu.dcache.WriteLineReq.missLatency::total      4174908                       # number of WriteLineReq miss ticks (Tick)
system.cpu.dcache.WriteLineReq.accesses::cpu.data          131                       # number of WriteLineReq accesses(hits+misses) (Count)
system.cpu.dcache.WriteLineReq.accesses::total          131                       # number of WriteLineReq accesses(hits+misses) (Count)
system.cpu.dcache.WriteLineReq.missRate::cpu.data            1                       # miss rate for WriteLineReq accesses (Ratio)
system.cpu.dcache.WriteLineReq.missRate::total            1                       # miss rate for WriteLineReq accesses (Ratio)
system.cpu.dcache.WriteLineReq.avgMissLatency::cpu.data 31869.526718                       # average WriteLineReq miss latency ((Tick/Count))
system.cpu.dcache.WriteLineReq.avgMissLatency::total 31869.526718                       # average WriteLineReq miss latency ((Tick/Count))
system.cpu.dcache.WriteLineReq.mshrMisses::cpu.data          131                       # number of WriteLineReq MSHR misses (Count)
system.cpu.dcache.WriteLineReq.mshrMisses::total          131                       # number of WriteLineReq MSHR misses (Count)
system.cpu.dcache.WriteLineReq.mshrMissLatency::cpu.data      4043908                       # number of WriteLineReq MSHR miss ticks (Tick)
system.cpu.dcache.WriteLineReq.mshrMissLatency::total      4043908                       # number of WriteLineReq MSHR miss ticks (Tick)
system.cpu.dcache.WriteLineReq.mshrMissRate::cpu.data            1                       # mshr miss rate for WriteLineReq accesses (Ratio)
system.cpu.dcache.WriteLineReq.mshrMissRate::total            1                       # mshr miss rate for WriteLineReq accesses (Ratio)
system.cpu.dcache.WriteLineReq.avgMshrMissLatency::cpu.data 30869.526718                       # average WriteLineReq mshr miss latency ((Tick/Count))
system.cpu.dcache.WriteLineReq.avgMshrMissLatency::total 30869.526718                       # average WriteLineReq mshr miss latency ((Tick/Count))
system.cpu.dcache.WriteReq.hits::cpu.data       577359                       # number of WriteReq hits (Count)
system.cpu.dcache.WriteReq.hits::total         577359                       # number of WriteReq hits (Count)
system.cpu.dcache.WriteReq.misses::cpu.data         5560                       # number of WriteReq misses (Count)
system.cpu.dcache.WriteReq.misses::total         5560                       # number of WriteReq misses (Count)
system.cpu.dcache.WriteReq.missLatency::cpu.data    341802085                       # number of WriteReq miss ticks (Tick)
system.cpu.dcache.WriteReq.missLatency::total    341802085                       # number of WriteReq miss ticks (Tick)
system.cpu.dcache.WriteReq.accesses::cpu.data       582919                       # number of WriteReq accesses(hits+misses) (Count)
system.cpu.dcache.WriteReq.accesses::total       582919                       # number of WriteReq accesses(hits+misses) (Count)
system.cpu.dcache.WriteReq.missRate::cpu.data     0.009538                       # miss rate for WriteReq accesses (Ratio)
system.cpu.dcache.WriteReq.missRate::total     0.009538                       # miss rate for WriteReq accesses (Ratio)
system.cpu.dcache.WriteReq.avgMissLatency::cpu.data 61475.195144                       # average WriteReq miss latency ((Tick/Count))
system.cpu.dcache.WriteReq.avgMissLatency::total 61475.195144                       # average WriteReq miss latency ((Tick/Count))
system.cpu.dcache.WriteReq.mshrHits::cpu.data         3437                       # number of WriteReq MSHR hits (Count)
system.cpu.dcache.WriteReq.mshrHits::total         3437                       # number of WriteReq MSHR hits (Count)
system.cpu.dcache.WriteReq.mshrMisses::cpu.data         2123                       # number of WriteReq MSHR misses (Count)
system.cpu.dcache.WriteReq.mshrMisses::total         2123                       # number of WriteReq MSHR misses (Count)
system.cpu.dcache.WriteReq.mshrMissLatency::cpu.data    131273796                       # number of WriteReq MSHR miss ticks (Tick)
system.cpu.dcache.WriteReq.mshrMissLatency::total    131273796                       # number of WriteReq MSHR miss ticks (Tick)
system.cpu.dcache.WriteReq.mshrMissRate::cpu.data     0.003642                       # mshr miss rate for WriteReq accesses (Ratio)
system.cpu.dcache.WriteReq.mshrMissRate::total     0.003642                       # mshr miss rate for WriteReq accesses (Ratio)
system.cpu.dcache.WriteReq.avgMshrMissLatency::cpu.data 61834.100801                       # average WriteReq mshr miss latency ((Tick/Count))
system.cpu.dcache.WriteReq.avgMshrMissLatency::total 61834.100801                       # average WriteReq mshr miss latency ((Tick/Count))
system.cpu.dcache.power_state.pwrStateResidencyTicks::UNDEFINED   4702377000                       # Cumulative time (in ticks) in various power states (Tick)
system.cpu.dcache.tags.tagsInUse          1016.029509                       # Average ticks per tags in use ((Tick/Count))
system.cpu.dcache.tags.totalRefs              1466565                       # Total number of references to valid blocks. (Count)
system.cpu.dcache.tags.sampledRefs             123733                       # Sample count of references to valid blocks. (Count)
system.cpu.dcache.tags.avgRefs              11.852659                       # Average number of references to valid blocks. ((Count/Count))
system.cpu.dcache.tags.warmupTick              253500                       # The tick when the warmup percentage was hit. (Tick)
system.cpu.dcache.tags.occupancies::cpu.data  1016.029509                       # Average occupied blocks per tick, per requestor ((Count/Tick))
system.cpu.dcache.tags.avgOccs::cpu.data     0.992216                       # Average percentage of cache occupancy ((Ratio/Tick))
system.cpu.dcache.tags.avgOccs::total        0.992216                       # Average percentage of cache occupancy ((Ratio/Tick))
system.cpu.dcache.tags.occupanciesTaskId::1024         1024                       # Occupied blocks per task id (Count)
system.cpu.dcache.tags.ageTaskId_1024::0           87                       # Occupied blocks per task id, per block age (Count)
system.cpu.dcache.tags.ageTaskId_1024::1          414                       # Occupied blocks per task id, per block age (Count)
system.cpu.dcache.tags.ageTaskId_1024::2          192                       # Occupied blocks per task id, per block age (Count)
system.cpu.dcache.tags.ageTaskId_1024::3          331                       # Occupied blocks per task id, per block age (Count)
system.cpu.dcache.tags.ratioOccsTaskId::1024            1                       # Ratio of occupied blocks and all blocks, per task id (Ratio)
system.cpu.dcache.tags.tagAccesses            6193833                       # Number of tag accesses (Count)
system.cpu.dcache.tags.dataAccesses           6193833                       # Number of data accesses (Count)
system.cpu.dcache.tags.power_state.pwrStateResidencyTicks::UNDEFINED   4702377000                       # Cumulative time (in ticks) in various power states (Tick)
system.cpu.decode.idleCycles                   609295                       # Number of cycles decode is idle (Cycle)
system.cpu.decode.blockedCycles               6960012                       # Number of cycles decode is blocked (Cycle)
system.cpu.decode.runCycles                   1465168                       # Number of cycles decode is running (Cycle)
system.cpu.decode.unblockCycles                206861                       # Number of cycles decode is unblocking (Cycle)
system.cpu.decode.squashCycles                  19983                       # Number of cycles decode is squashing (Cycle)
system.cpu.decode.branchResolved               330384                       # Number of times decode resolved a branch (Count)
system.cpu.decode.branchMispred                   837                       # Number of times decode detected a branch misprediction (Count)
system.cpu.decode.decodedInsts               12010095                       # Number of instructions handled by decode (Count)
system.cpu.decode.squashedInsts                  2846                       # Number of squashed instructions handled by decode (Count)
system.cpu.fetch.icacheStallCycles             986117                       # Number of cycles fetch is stalled on an Icache miss (Cycle)
system.cpu.fetch.insts                       11887988                       # Number of instructions fetch has processed (Count)
system.cpu.fetch.branches                     2567700                       # Number of branches that fetch encountered (Count)
system.cpu.fetch.predictedBranches             372582                       # Number of branches that fetch has predicted taken (Count)
system.cpu.fetch.cycles                       8248347                       # Number of cycles fetch has run and was not squashing or blocked (Cycle)
system.cpu.fetch.squashCycles                   41594                       # Number of cycles fetch has spent squashing (Cycle)
system.cpu.fetch.miscStallCycles                  801                       # Number of cycles fetch has spent waiting on interrupts, or bad addresses, or out of MSHRs (Cycle)
system.cpu.fetch.pendingTrapStallCycles          5213                       # Number of stall cycles due to pending traps (Cycle)
system.cpu.fetch.icacheWaitRetryStallCycles           44                       # Number of stall cycles due to full MSHR (Cycle)
system.cpu.fetch.cacheLines                    935042                       # Number of cache lines fetched (Count)
system.cpu.fetch.icacheSquashes                  5285                       # Number of outstanding Icache misses that were squashed (Count)
system.cpu.fetch.nisnDist::samples            9261319                       # Number of instructions fetched each cycle (Total) (Count)
system.cpu.fetch.nisnDist::mean              1.324561                       # Number of instructions fetched each cycle (Total) (Count)
system.cpu.fetch.nisnDist::stdev             2.837607                       # Number of instructions fetched each cycle (Total) (Count)
system.cpu.fetch.nisnDist::underflows               0      0.00%      0.00% # Number of instructions fetched each cycle (Total) (Count)
system.cpu.fetch.nisnDist::0                  7427820     80.20%     80.20% # Number of instructions fetched each cycle (Total) (Count)
system.cpu.fetch.nisnDist::1                    65128      0.70%     80.91% # Number of instructions fetched each cycle (Total) (Count)
system.cpu.fetch.nisnDist::2                    98054      1.06%     81.96% # Number of instructions fetched each cycle (Total) (Count)
system.cpu.fetch.nisnDist::3                    87342      0.94%     82.91% # Number of instructions fetched each cycle (Total) (Count)
system.cpu.fetch.nisnDist::4                    90989      0.98%     83.89% # Number of instructions fetched each cycle (Total) (Count)
system.cpu.fetch.nisnDist::5                   148098      1.60%     85.49% # Number of instructions fetched each cycle (Total) (Count)
system.cpu.fetch.nisnDist::6                    42405      0.46%     85.95% # Number of instructions fetched each cycle (Total) (Count)
system.cpu.fetch.nisnDist::7                    26818      0.29%     86.24% # Number of instructions fetched each cycle (Total) (Count)
system.cpu.fetch.nisnDist::8                  1274665     13.76%    100.00% # Number of instructions fetched each cycle (Total) (Count)
system.cpu.fetch.nisnDist::overflows                0      0.00%    100.00% # Number of instructions fetched each cycle (Total) (Count)
system.cpu.fetch.nisnDist::min_value                0                       # Number of instructions fetched each cycle (Total) (Count)
system.cpu.fetch.nisnDist::max_value                8                       # Number of instructions fetched each cycle (Total) (Count)
system.cpu.fetch.nisnDist::total              9261319                       # Number of instructions fetched each cycle (Total) (Count)
system.cpu.fetch.branchRate                  0.273021                       # Number of branch fetches per cycle (Ratio)
system.cpu.fetch.rate                        1.264040                       # Number of inst fetches per cycle ((Count/Cycle))
system.cpu.icache.demandHits::cpu.inst         932386                       # number of demand (read+write) hits (Count)
system.cpu.icache.demandHits::total            932386                       # number of demand (read+write) hits (Count)
system.cpu.icache.overallHits::cpu.inst        932386                       # number of overall hits (Count)
system.cpu.icache.overallHits::total           932386                       # number of overall hits (Count)
system.cpu.icache.demandMisses::cpu.inst         2656                       # number of demand (read+write) misses (Count)
system.cpu.icache.demandMisses::total            2656                       # number of demand (read+write) misses (Count)
system.cpu.icache.overallMisses::cpu.inst         2656                       # number of overall misses (Count)
system.cpu.icache.overallMisses::total           2656                       # number of overall misses (Count)
system.cpu.icache.demandMissLatency::cpu.inst    178683998                       # number of demand (read+write) miss ticks (Tick)
system.cpu.icache.demandMissLatency::total    178683998                       # number of demand (read+write) miss ticks (Tick)
system.cpu.icache.overallMissLatency::cpu.inst    178683998                       # number of overall miss ticks (Tick)
system.cpu.icache.overallMissLatency::total    178683998                       # number of overall miss ticks (Tick)
system.cpu.icache.demandAccesses::cpu.inst       935042                       # number of demand (read+write) accesses (Count)
system.cpu.icache.demandAccesses::total        935042                       # number of demand (read+write) accesses (Count)
system.cpu.icache.overallAccesses::cpu.inst       935042                       # number of overall (read+write) accesses (Count)
system.cpu.icache.overallAccesses::total       935042                       # number of overall (read+write) accesses (Count)
system.cpu.icache.demandMissRate::cpu.inst     0.002841                       # miss rate for demand accesses (Ratio)
system.cpu.icache.demandMissRate::total      0.002841                       # miss rate for demand accesses (Ratio)
system.cpu.icache.overallMissRate::cpu.inst     0.002841                       # miss rate for overall accesses (Ratio)
system.cpu.icache.overallMissRate::total     0.002841                       # miss rate for overall accesses (Ratio)
system.cpu.icache.demandAvgMissLatency::cpu.inst 67275.601657                       # average overall miss latency in ticks ((Tick/Count))
system.cpu.icache.demandAvgMissLatency::total 67275.601657                       # average overall miss latency in ticks ((Tick/Count))
system.cpu.icache.overallAvgMissLatency::cpu.inst 67275.601657                       # average overall miss latency ((Tick/Count))
system.cpu.icache.overallAvgMissLatency::total 67275.601657                       # average overall miss latency ((Tick/Count))
system.cpu.icache.blockedCycles::no_mshrs          699                       # number of cycles access was blocked (Cycle)
system.cpu.icache.blockedCycles::no_targets            0                       # number of cycles access was blocked (Cycle)
system.cpu.icache.blockedCauses::no_mshrs           14                       # number of times access was blocked (Count)
system.cpu.icache.blockedCauses::no_targets            0                       # number of times access was blocked (Count)
system.cpu.icache.avgBlocked::no_mshrs      49.928571                       # average number of cycles each access was blocked ((Cycle/Count))
system.cpu.icache.avgBlocked::no_targets          nan                       # average number of cycles each access was blocked ((Cycle/Count))
system.cpu.icache.writebacks::writebacks         1826                       # number of writebacks (Count)
system.cpu.icache.writebacks::total              1826                       # number of writebacks (Count)
system.cpu.icache.demandMshrHits::cpu.inst          573                       # number of demand (read+write) MSHR hits (Count)
system.cpu.icache.demandMshrHits::total           573                       # number of demand (read+write) MSHR hits (Count)
system.cpu.icache.overallMshrHits::cpu.inst          573                       # number of overall MSHR hits (Count)
system.cpu.icache.overallMshrHits::total          573                       # number of overall MSHR hits (Count)
system.cpu.icache.demandMshrMisses::cpu.inst         2083                       # number of demand (read+write) MSHR misses (Count)
system.cpu.icache.demandMshrMisses::total         2083                       # number of demand (read+write) MSHR misses (Count)
system.cpu.icache.overallMshrMisses::cpu.inst         2083                       # number of overall MSHR misses (Count)
system.cpu.icache.overallMshrMisses::total         2083                       # number of overall MSHR misses (Count)
system.cpu.icache.demandMshrMissLatency::cpu.inst    141480499                       # number of demand (read+write) MSHR miss ticks (Tick)
system.cpu.icache.demandMshrMissLatency::total    141480499                       # number of demand (read+write) MSHR miss ticks (Tick)
system.cpu.icache.overallMshrMissLatency::cpu.inst    141480499                       # number of overall MSHR miss ticks (Tick)
system.cpu.icache.overallMshrMissLatency::total    141480499                       # number of overall MSHR miss ticks (Tick)
system.cpu.icache.demandMshrMissRate::cpu.inst     0.002228                       # mshr miss ratio for demand accesses (Ratio)
system.cpu.icache.demandMshrMissRate::total     0.002228                       # mshr miss ratio for demand accesses (Ratio)
system.cpu.icache.overallMshrMissRate::cpu.inst     0.002228                       # mshr miss ratio for overall accesses (Ratio)
system.cpu.icache.overallMshrMissRate::total     0.002228                       # mshr miss ratio for overall accesses (Ratio)
system.cpu.icache.demandAvgMshrMissLatency::cpu.inst 67921.506961                       # average overall mshr miss latency ((Tick/Count))
system.cpu.icache.demandAvgMshrMissLatency::total 67921.506961                       # average overall mshr miss latency ((Tick/Count))
system.cpu.icache.overallAvgMshrMissLatency::cpu.inst 67921.506961                       # average overall mshr miss latency ((Tick/Count))
system.cpu.icache.overallAvgMshrMissLatency::total 67921.506961                       # average overall mshr miss latency ((Tick/Count))
system.cpu.icache.replacements                   1826                       # number of replacements (Count)
system.cpu.icache.ReadReq.hits::cpu.inst       932386                       # number of ReadReq hits (Count)
system.cpu.icache.ReadReq.hits::total          932386                       # number of ReadReq hits (Count)
system.cpu.icache.ReadReq.misses::cpu.inst         2656                       # number of ReadReq misses (Count)
system.cpu.icache.ReadReq.misses::total          2656                       # number of ReadReq misses (Count)
system.cpu.icache.ReadReq.missLatency::cpu.inst    178683998                       # number of ReadReq miss ticks (Tick)
system.cpu.icache.ReadReq.missLatency::total    178683998                       # number of ReadReq miss ticks (Tick)
system.cpu.icache.ReadReq.accesses::cpu.inst       935042                       # number of ReadReq accesses(hits+misses) (Count)
system.cpu.icache.ReadReq.accesses::total       935042                       # number of ReadReq accesses(hits+misses) (Count)
system.cpu.icache.ReadReq.missRate::cpu.inst     0.002841                       # miss rate for ReadReq accesses (Ratio)
system.cpu.icache.ReadReq.missRate::total     0.002841                       # miss rate for ReadReq accesses (Ratio)
system.cpu.icache.ReadReq.avgMissLatency::cpu.inst 67275.601657                       # average ReadReq miss latency ((Tick/Count))
system.cpu.icache.ReadReq.avgMissLatency::total 67275.601657                       # average ReadReq miss latency ((Tick/Count))
system.cpu.icache.ReadReq.mshrHits::cpu.inst          573                       # number of ReadReq MSHR hits (Count)
system.cpu.icache.ReadReq.mshrHits::total          573                       # number of ReadReq MSHR hits (Count)
system.cpu.icache.ReadReq.mshrMisses::cpu.inst         2083                       # number of ReadReq MSHR misses (Count)
system.cpu.icache.ReadReq.mshrMisses::total         2083                       # number of ReadReq MSHR misses (Count)
system.cpu.icache.ReadReq.mshrMissLatency::cpu.inst    141480499                       # number of ReadReq MSHR miss ticks (Tick)
system.cpu.icache.ReadReq.mshrMissLatency::total    141480499                       # number of ReadReq MSHR miss ticks (Tick)
system.cpu.icache.ReadReq.mshrMissRate::cpu.inst     0.002228                       # mshr miss rate for ReadReq accesses (Ratio)
system.cpu.icache.ReadReq.mshrMissRate::total     0.002228                       # mshr miss rate for ReadReq accesses (Ratio)
system.cpu.icache.ReadReq.avgMshrMissLatency::cpu.inst 67921.506961                       # average ReadReq mshr miss latency ((Tick/Count))
system.cpu.icache.ReadReq.avgMshrMissLatency::total 67921.506961                       # average ReadReq mshr miss latency ((Tick/Count))
system.cpu.icache.power_state.pwrStateResidencyTicks::UNDEFINED   4702377000                       # Cumulative time (in ticks) in various power states (Tick)
system.cpu.icache.tags.tagsInUse           255.160835                       # Average ticks per tags in use ((Tick/Count))
system.cpu.icache.tags.totalRefs               934468                       # Total number of references to valid blocks. (Count)
system.cpu.icache.tags.sampledRefs               2082                       # Sample count of references to valid blocks. (Count)
system.cpu.icache.tags.avgRefs             448.831892                       # Average number of references to valid blocks. ((Count/Count))
system.cpu.icache.tags.warmupTick               87500                       # The tick when the warmup percentage was hit. (Tick)
system.cpu.icache.tags.occupancies::cpu.inst   255.160835                       # Average occupied blocks per tick, per requestor ((Count/Tick))
system.cpu.icache.tags.avgOccs::cpu.inst     0.996722                       # Average percentage of cache occupancy ((Ratio/Tick))
system.cpu.icache.tags.avgOccs::total        0.996722                       # Average percentage of cache occupancy ((Ratio/Tick))
system.cpu.icache.tags.occupanciesTaskId::1024          256                       # Occupied blocks per task id (Count)
system.cpu.icache.tags.ageTaskId_1024::0           75                       # Occupied blocks per task id, per block age (Count)
system.cpu.icache.tags.ageTaskId_1024::1          108                       # Occupied blocks per task id, per block age (Count)
system.cpu.icache.tags.ageTaskId_1024::3           73                       # Occupied blocks per task id, per block age (Count)
system.cpu.icache.tags.ratioOccsTaskId::1024            1                       # Ratio of occupied blocks and all blocks, per task id (Ratio)
system.cpu.icache.tags.tagAccesses            3742250                       # Number of tag accesses (Count)
system.cpu.icache.tags.dataAccesses           3742250                       # Number of data accesses (Count)
system.cpu.icache.tags.power_state.pwrStateResidencyTicks::UNDEFINED   4702377000                       # Cumulative time (in ticks) in various power states (Tick)
system.cpu.iew.idleCycles                           0                       # Number of cycles IEW is idle (Cycle)
system.cpu.iew.squashCycles                     19983                       # Number of cycles IEW is squashing (Cycle)
system.cpu.iew.blockCycles                    1155882                       # Number of cycles IEW is blocking (Cycle)
system.cpu.iew.unblockCycles                    49287                       # Number of cycles IEW is unblocking (Cycle)
system.cpu.iew.dispatchedInsts               11796363                       # Number of instructions dispatched to IQ (Count)
system.cpu.iew.dispSquashedInsts                 5085                       # Number of squashed instructions skipped by dispatch (Count)
system.cpu.iew.dispLoadInsts                  1006113                       # Number of dispatched load instructions (Count)
system.cpu.iew.dispStoreInsts                  626108                       # Number of dispatched store instructions (Count)
system.cpu.iew.dispNonSpecInsts                   378                       # Number of dispatched non-speculative instructions (Count)
system.cpu.iew.iqFullEvents                     15188                       # Number of times the IQ has become full, causing a stall (Count)
system.cpu.iew.lsqFullEvents                    27482                       # Number of times the LSQ has become full, causing a stall (Count)
system.cpu.iew.memOrderViolationEvents            151                       # Number of memory order violations (Count)
system.cpu.iew.predictedTakenIncorrect           9618                       # Number of branches that were predicted taken incorrectly (Count)
system.cpu.iew.predictedNotTakenIncorrect        13544                       # Number of branches that were predicted not taken incorrectly (Count)
system.cpu.iew.branchMispredicts                23162                       # Number of branch mispredicts detected at execute (Count)
system.cpu.iew.instsToCommit                 11488693                       # Cumulative count of insts sent to commit (Count)
system.cpu.iew.writebackCount                11477627                       # Cumulative count of insts written-back (Count)
system.cpu.iew.producerInst                   6613239                       # Number of instructions producing a value (Count)
system.cpu.iew.consumerInst                  13002721                       # Number of instructions consuming a value (Count)
system.cpu.iew.wbRate                        1.220407                       # Insts written-back per cycle ((Count/Cycle))
system.cpu.iew.wbFanout                      0.508604                       # Average fanout of values written-back ((Count/Count))
system.cpu.lsq0.forwLoads                       38986                       # Number of loads that had data forwarded from stores (Count)
system.cpu.lsq0.squashedLoads                  115709                       # Number of loads squashed (Count)
system.cpu.lsq0.ignoredResponses                   46                       # Number of memory responses ignored because the instruction is squashed (Count)
system.cpu.lsq0.memOrderViolation                 151                       # Number of memory ordering violations (Count)
system.cpu.lsq0.squashedStores                  42972                       # Number of stores squashed (Count)
system.cpu.lsq0.rescheduledLoads                 9311                       # Number of loads that were rescheduled (Count)
system.cpu.lsq0.blockedByCache                   5164                       # Number of times an access to memory failed due to the cache being blocked (Count)
system.cpu.lsq0.loadToUse::samples             890404                       # Distribution of cycle latency between the first time a load is issued and its completion (Unspecified)
system.cpu.lsq0.loadToUse::mean             33.827776                       # Distribution of cycle latency between the first time a load is issued and its completion (Unspecified)
system.cpu.lsq0.loadToUse::stdev            77.303468                       # Distribution of cycle latency between the first time a load is issued and its completion (Unspecified)
system.cpu.lsq0.loadToUse::0-9                 728346     81.80%     81.80% # Distribution of cycle latency between the first time a load is issued and its completion (Unspecified)
system.cpu.lsq0.loadToUse::10-19                 2999      0.34%     82.14% # Distribution of cycle latency between the first time a load is issued and its completion (Unspecified)
system.cpu.lsq0.loadToUse::20-29                 9029      1.01%     83.15% # Distribution of cycle latency between the first time a load is issued and its completion (Unspecified)
system.cpu.lsq0.loadToUse::30-39                 1130      0.13%     83.28% # Distribution of cycle latency between the first time a load is issued and its completion (Unspecified)
system.cpu.lsq0.loadToUse::40-49                 1011      0.11%     83.39% # Distribution of cycle latency between the first time a load is issued and its completion (Unspecified)
[...]
system.mem_ctrls.dram.perBankWrBursts::10         6220                       # Per bank write bursts (Count)
system.mem_ctrls.dram.perBankWrBursts::11         5873                       # Per bank write bursts (Count)
system.mem_ctrls.dram.perBankWrBursts::12         6489                       # Per bank write bursts (Count)
system.mem_ctrls.dram.perBankWrBursts::13         6295                       # Per bank write bursts (Count)
system.mem_ctrls.dram.perBankWrBursts::14         6130                       # Per bank write bursts (Count)
system.mem_ctrls.dram.perBankWrBursts::15         6345                       # Per bank write bursts (Count)
system.mem_ctrls.dram.totQLat              2326526750                       # Total ticks spent queuing (Tick)
system.mem_ctrls.dram.totBusLat             593510000                       # Total ticks spent in databus transfers (Tick)
system.mem_ctrls.dram.totMemAccLat         4552189250                       # Total ticks spent from burst creation until serviced by the DRAM (Tick)
system.mem_ctrls.dram.avgQLat                19599.73                       # Average queueing delay per DRAM burst ((Tick/Count))
system.mem_ctrls.dram.avgBusLat               5000.00                       # Average bus latency per DRAM burst ((Tick/Count))
system.mem_ctrls.dram.avgMemAccLat           38349.73                       # Average memory access latency per DRAM burst ((Tick/Count))
system.mem_ctrls.dram.readRowHits              102846                       # Number of row buffer hits during reads (Count)
system.mem_ctrls.dram.writeRowHits              82618                       # Number of row buffer hits during writes (Count)
system.mem_ctrls.dram.readRowHitRate            86.64                       # Row buffer hit rate for reads (Ratio)
system.mem_ctrls.dram.writeRowHitRate           86.03                       # Row buffer hit rate for writes (Ratio)
system.mem_ctrls.dram.bytesPerActivate::samples        29256                       # Bytes accessed per row activation (Byte)
system.mem_ctrls.dram.bytesPerActivate::mean   469.619907                       # Bytes accessed per row activation (Byte)
system.mem_ctrls.dram.bytesPerActivate::gmean   301.670972                       # Bytes accessed per row activation (Byte)
system.mem_ctrls.dram.bytesPerActivate::stdev   370.999325                       # Bytes accessed per row activation (Byte)
system.mem_ctrls.dram.bytesPerActivate::0-127         6015     20.56%     20.56% # Bytes accessed per row activation (Byte)
system.mem_ctrls.dram.bytesPerActivate::128-255         5616     19.20%     39.76% # Bytes accessed per row activation (Byte)
system.mem_ctrls.dram.bytesPerActivate::256-383         2982     10.19%     49.95% # Bytes accessed per row activation (Byte)
system.mem_ctrls.dram.bytesPerActivate::384-511         2153      7.36%     57.31% # Bytes accessed per row activation (Byte)
system.mem_ctrls.dram.bytesPerActivate::512-639         1856      6.34%     63.65% # Bytes accessed per row activation (Byte)
system.mem_ctrls.dram.bytesPerActivate::640-767         2278      7.79%     71.44% # Bytes accessed per row activation (Byte)
system.mem_ctrls.dram.bytesPerActivate::768-895         1196      4.09%     75.53% # Bytes accessed per row activation (Byte)
system.mem_ctrls.dram.bytesPerActivate::896-1023          957      3.27%     78.80% # Bytes accessed per row activation (Byte)
system.mem_ctrls.dram.bytesPerActivate::1024-1151         6203     21.20%    100.00% # Bytes accessed per row activation (Byte)
system.mem_ctrls.dram.bytesPerActivate::total        29256                       # Bytes accessed per row activation (Byte)
system.mem_ctrls.dram.bytesRead               7596928                       # Total bytes read (Byte)
system.mem_ctrls.dram.bytesWritten            6146112                       # Total bytes written (Byte)
system.mem_ctrls.dram.avgRdBW             1615.550603                       # Average DRAM read bandwidth in MiBytes/s ((Byte/Second))
system.mem_ctrls.dram.avgWrBW             1307.022385                       # Average DRAM write bandwidth in MiBytes/s ((Byte/Second))
system.mem_ctrls.dram.peakBW                 12800.00                       # Theoretical peak bandwidth in MiByte/s ((Byte/Second))
system.mem_ctrls.dram.busUtil                   22.83                       # Data bus utilization in percentage (Ratio)
system.mem_ctrls.dram.busUtilRead               12.62                       # Data bus utilization in percentage for reads (Ratio)
system.mem_ctrls.dram.busUtilWrite              10.21                       # Data bus utilization in percentage for writes (Ratio)
system.mem_ctrls.dram.pageHitRate               86.37                       # Row buffer hit rate, read and write combined (Ratio)
system.mem_ctrls.dram.power_state.pwrStateResidencyTicks::UNDEFINED   4702377000                       # Cumulative time (in ticks) in various power states (Tick)
system.mem_ctrls.dram.rank0.actEnergy       102865980                       # Energy for activate commands per rank (pJ) (Joule)
system.mem_ctrls.dram.rank0.preEnergy        54648000                       # Energy for precharge commands per rank (pJ) (Joule)
system.mem_ctrls.dram.rank0.readEnergy      415255260                       # Energy for read commands per rank (pJ) (Joule)
system.mem_ctrls.dram.rank0.writeEnergy     246707640                       # Energy for write commands per rank (pJ) (Joule)
system.mem_ctrls.dram.rank0.refreshEnergy 370627920.000000                       # Energy for refresh commands per rank (pJ) (Joule)
system.mem_ctrls.dram.rank0.actBackEnergy   2068408590                       # Energy for active background per rank (pJ) (Joule)
system.mem_ctrls.dram.rank0.preBackEnergy     63895200                       # Energy for precharge background per rank (pJ) (Joule)
system.mem_ctrls.dram.rank0.actPowerDownEnergy            0                       # Energy for active power-down per rank (pJ) (Joule)
system.mem_ctrls.dram.rank0.prePowerDownEnergy            0                       # Energy for precharge power-down per rank (pJ) (Joule)
system.mem_ctrls.dram.rank0.selfRefreshEnergy            0                       # Energy for self refresh per rank (pJ) (Joule)
system.mem_ctrls.dram.rank0.totalEnergy    3322408590                       # Total energy per rank (pJ) (Joule)
system.mem_ctrls.dram.rank0.averagePower   706.538117                       # Core power per rank (mW) (Watt)
system.mem_ctrls.dram.rank0.totalIdleTime            0                       # Total Idle time Per DRAM Rank (Tick)
system.mem_ctrls.dram.rank0.pwrStateTime::IDLE    148714500                       # Time in different power states (Tick)
system.mem_ctrls.dram.rank0.pwrStateTime::REF    156780000                       # Time in different power states (Tick)
system.mem_ctrls.dram.rank0.pwrStateTime::SREF            0                       # Time in different power states (Tick)
system.mem_ctrls.dram.rank0.pwrStateTime::PRE_PDN            0                       # Time in different power states (Tick)
system.mem_ctrls.dram.rank0.pwrStateTime::ACT   4396882500                       # Time in different power states (Tick)
system.mem_ctrls.dram.rank0.pwrStateTime::ACT_PDN            0                       # Time in different power states (Tick)
system.mem_ctrls.dram.rank1.actEnergy       106128960                       # Energy for activate commands per rank (pJ) (Joule)
system.mem_ctrls.dram.rank1.preEnergy        56378520                       # Energy for precharge commands per rank (pJ) (Joule)
system.mem_ctrls.dram.rank1.readEnergy      432277020                       # Energy for read commands per rank (pJ) (Joule)
system.mem_ctrls.dram.rank1.writeEnergy     254584620                       # Energy for write commands per rank (pJ) (Joule)
system.mem_ctrls.dram.rank1.refreshEnergy 370627920.000000                       # Energy for refresh commands per rank (pJ) (Joule)
system.mem_ctrls.dram.rank1.actBackEnergy   2083778070                       # Energy for active background per rank (pJ) (Joule)
system.mem_ctrls.dram.rank1.preBackEnergy     50952480                       # Energy for precharge background per rank (pJ) (Joule)
system.mem_ctrls.dram.rank1.actPowerDownEnergy            0                       # Energy for active power-down per rank (pJ) (Joule)
system.mem_ctrls.dram.rank1.prePowerDownEnergy            0                       # Energy for precharge power-down per rank (pJ) (Joule)
system.mem_ctrls.dram.rank1.selfRefreshEnergy            0                       # Energy for self refresh per rank (pJ) (Joule)
system.mem_ctrls.dram.rank1.totalEnergy    3354727590                       # Total energy per rank (pJ) (Joule)
system.mem_ctrls.dram.rank1.averagePower   713.411024                       # Core power per rank (mW) (Watt)
system.mem_ctrls.dram.rank1.totalIdleTime            0                       # Total Idle time Per DRAM Rank (Tick)
system.mem_ctrls.dram.rank1.pwrStateTime::IDLE    115085250                       # Time in different power states (Tick)
system.mem_ctrls.dram.rank1.pwrStateTime::REF    156780000                       # Time in different power states (Tick)
system.mem_ctrls.dram.rank1.pwrStateTime::SREF            0                       # Time in different power states (Tick)
system.mem_ctrls.dram.rank1.pwrStateTime::PRE_PDN            0                       # Time in different power states (Tick)
system.mem_ctrls.dram.rank1.pwrStateTime::ACT   4430511750                       # Time in different power states (Tick)
system.mem_ctrls.dram.rank1.pwrStateTime::ACT_PDN            0                       # Time in different power states (Tick)
system.mem_ctrls.power_state.pwrStateResidencyTicks::UNDEFINED   4702377000                       # Cumulative time (in ticks) in various power states (Tick)
system.membus.transDist::ReadResp              117246                       # Transaction distribution (Count)
system.membus.transDist::WritebackDirty         96055                       # Transaction distribution (Count)
system.membus.transDist::CleanEvict             18636                       # Transaction distribution (Count)
system.membus.transDist::ReadExReq               1478                       # Transaction distribution (Count)
system.membus.transDist::ReadExResp              1478                       # Transaction distribution (Count)
system.membus.transDist::ReadSharedReq         117246                       # Transaction distribution (Count)
system.membus.transDist::InvalidateReq            141                       # Transaction distribution (Count)
system.membus.pktCount_system.l2.mem_side_port::system.mem_ctrls.port       352280                       # Packet count per connected requestor and responder (Count)
system.membus.pktCount::total                  352280                       # Packet count per connected requestor and responder (Count)
system.membus.pktSize_system.l2.mem_side_port::system.mem_ctrls.port     13745856                       # Cumulative packet size per connected requestor and responder (Byte)
system.membus.pktSize::total                 13745856                       # Cumulative packet size per connected requestor and responder (Byte)
system.membus.snoops                                0                       # Total snoops (Count)
system.membus.snoopTraffic                          0                       # Total snoop traffic (Byte)
system.membus.snoopFanout::samples             118865                       # Request fanout histogram (Count)
system.membus.snoopFanout::mean                     0                       # Request fanout histogram (Count)
system.membus.snoopFanout::stdev                    0                       # Request fanout histogram (Count)
system.membus.snoopFanout::underflows               0      0.00%      0.00% # Request fanout histogram (Count)
system.membus.snoopFanout::0                   118865    100.00%    100.00% # Request fanout histogram (Count)
system.membus.snoopFanout::1                        0      0.00%    100.00% # Request fanout histogram (Count)
system.membus.snoopFanout::overflows                0      0.00%    100.00% # Request fanout histogram (Count)
system.membus.snoopFanout::min_value                0                       # Request fanout histogram (Count)
system.membus.snoopFanout::max_value                0                       # Request fanout histogram (Count)
system.membus.snoopFanout::total               118865                       # Request fanout histogram (Count)
system.membus.power_state.pwrStateResidencyTicks::UNDEFINED   4702377000                       # Cumulative time (in ticks) in various power states (Tick)
system.membus.reqLayer0.occupancy           659611500                       # Layer occupancy (ticks) (Tick)
system.membus.reqLayer0.utilization               0.1                       # Layer utilization (Ratio)
system.membus.respLayer1.occupancy          621662000                       # Layer occupancy (ticks) (Tick)
system.membus.respLayer1.utilization              0.1                       # Layer utilization (Ratio)
system.membus.snoop_filter.totRequests         233556                       # Total number of requests made to the snoop filter. (Count)
system.membus.snoop_filter.hitSingleRequests       114691                       # Number of requests hitting in the snoop filter with a single holder of the requested data. (Count)
system.membus.snoop_filter.hitMultiRequests            0                       # Number of requests hitting in the snoop filter with multiple (>1) holders of the requested data. (Count)
system.membus.snoop_filter.totSnoops                0                       # Total number of snoops made to the snoop filter. (Count)
system.membus.snoop_filter.hitSingleSnoops            0                       # Number of snoops hitting in the snoop filter with a single holder of the requested data. (Count)
system.membus.snoop_filter.hitMultiSnoops            0                       # Number of snoops hitting in the snoop filter with multiple (>1) holders of the requested data. (Count)
system.tol2bus.transDist::ReadResp             123556                       # Transaction distribution (Count)
system.tol2bus.transDist::WritebackDirty       197305                       # Transaction distribution (Count)
system.tol2bus.transDist::WritebackClean         1826                       # Transaction distribution (Count)
system.tol2bus.transDist::CleanEvict            40727                       # Transaction distribution (Count)
system.tol2bus.transDist::ReadExReq              2118                       # Transaction distribution (Count)
system.tol2bus.transDist::ReadExResp             2118                       # Transaction distribution (Count)
system.tol2bus.transDist::ReadCleanReq           2083                       # Transaction distribution (Count)
system.tol2bus.transDist::ReadSharedReq        121474                       # Transaction distribution (Count)
system.tol2bus.transDist::InvalidateReq           141                       # Transaction distribution (Count)
system.tol2bus.transDist::InvalidateResp          141                       # Transaction distribution (Count)
system.tol2bus.pktCount_system.cpu.icache.mem_side_port::system.l2.cpu_side_port         5991                       # Packet count per connected requestor and responder (Count)
system.tol2bus.pktCount_system.cpu.dcache.mem_side_port::system.l2.cpu_side_port       370175                       # Packet count per connected requestor and responder (Count)
system.tol2bus.pktCount::total                 376166                       # Packet count per connected requestor and responder (Count)
system.tol2bus.pktSize_system.cpu.icache.mem_side_port::system.l2.cpu_side_port       250112                       # Cumulative packet size per connected requestor and responder (Byte)
system.tol2bus.pktSize_system.cpu.dcache.mem_side_port::system.l2.cpu_side_port     14389824                       # Cumulative packet size per connected requestor and responder (Byte)
system.tol2bus.pktSize::total                14639936                       # Cumulative packet size per connected requestor and responder (Byte)
system.tol2bus.snoops                          115323                       # Total snoops (Count)
system.tol2bus.snoopTraffic                   6147584                       # Total snoop traffic (Byte)
system.tol2bus.snoopFanout::samples            241139                       # Request fanout histogram (Count)
system.tol2bus.snoopFanout::mean             0.003322                       # Request fanout histogram (Count)
system.tol2bus.snoopFanout::stdev            0.057539                       # Request fanout histogram (Count)
system.tol2bus.snoopFanout::underflows              0      0.00%      0.00% # Request fanout histogram (Count)
system.tol2bus.snoopFanout::0                  240338     99.67%     99.67% # Request fanout histogram (Count)
system.tol2bus.snoopFanout::1                     801      0.33%    100.00% # Request fanout histogram (Count)
system.tol2bus.snoopFanout::2                       0      0.00%    100.00% # Request fanout histogram (Count)
system.tol2bus.snoopFanout::overflows               0      0.00%    100.00% # Request fanout histogram (Count)
system.tol2bus.snoopFanout::min_value               0                       # Request fanout histogram (Count)
system.tol2bus.snoopFanout::max_value               1                       # Request fanout histogram (Count)
system.tol2bus.snoopFanout::total              241139                       # Request fanout histogram (Count)
system.tol2bus.power_state.pwrStateResidencyTicks::UNDEFINED   4702377000                       # Cumulative time (in ticks) in various power states (Tick)
system.tol2bus.reqLayer0.occupancy          228250500                       # Layer occupancy (ticks) (Tick)
system.tol2bus.reqLayer0.utilization              0.0                       # Layer utilization (Ratio)
system.tol2bus.respLayer0.occupancy           3123499                       # Layer occupancy (ticks) (Tick)
system.tol2bus.respLayer0.utilization             0.0                       # Layer utilization (Ratio)
system.tol2bus.respLayer1.occupancy         185458500                       # Layer occupancy (ticks) (Tick)
system.tol2bus.respLayer1.utilization             0.0                       # Layer utilization (Ratio)
system.tol2bus.snoop_filter.totRequests        250351                       # Total number of requests made to the snoop filter. (Count)
system.tol2bus.snoop_filter.hitSingleRequests       124535                       # Number of requests hitting in the snoop filter with a single holder of the requested data. (Count)
system.tol2bus.snoop_filter.hitMultiRequests            2                       # Number of requests hitting in the snoop filter with multiple (>1) holders of the requested data. (Count)
system.tol2bus.snoop_filter.totSnoops             799                       # Total number of snoops made to the snoop filter. (Count)
system.tol2bus.snoop_filter.hitSingleSnoops          799                       # Number of snoops hitting in the snoop filter with a single holder of the requested data. (Count)
system.tol2bus.snoop_filter.hitMultiSnoops            0                       # Number of snoops hitting in the snoop filter with multiple (>1) holders of the requested data. (Count)
system.voltage_domain.voltage                       1                       # Voltage in Volts (Volt)
system.workload.inst.arm                            0                       # number of arm instructions executed (Count)
system.workload.inst.quiesce                        0                       # number of quiesce instructions executed (Count)

---------- End Simulation Statistics   ----------
