
---------- Begin Simulation Statistics ----------
simSeconds                                   0.009029                       # Number of seconds simulated (Second)
simTicks                                   9028742000                       # Number of ticks simulated (Tick)
finalTick                                  9028742000                       # Number of ticks from beginning of simulation (restored from checkpoints and never reset) (Tick)
simFreq                                  1000000000000                       # The number of ticks per simulated second ((Tick/Second))
hostSeconds                                    122.71                       # Real time elapsed on the host (Second)
hostTickRate                                 73575955                       # The number of ticks simulated per host second (ticks/s) ((Tick/Second))
hostMemory                                     680116                       # Number of bytes of host memory used (Byte)
simInsts                                     40482002                       # Number of instructions simulated (Count)
simOps                                       40759442                       # Number of ops (including micro ops) simulated (Count)
hostInstRate                                   329891                       # Simulator instruction rate (inst/s) ((Count/Second))
hostOpRate                                     332152                       # Simulator op (including micro ops) rate (op/s) ((Count/Second))
system.clk_domain.clock                          1000                       # Clock period in ticks (Tick)
system.cpu.numCycles                         18057485                       # Number of cpu cycles simulated (Cycle)
system.cpu.numWorkItemsStarted                      0                       # Number of work items this cpu started (Count)
system.cpu.numWorkItemsCompleted                    0                       # Number of work items this cpu completed (Count)
system.cpu.instsAdded                        41606587                       # Number of instructions added to the IQ (excludes non-spec) (Count)
system.cpu.nonSpecInstsAdded                      152                       # Number of non-speculative instructions added to the IQ (Count)
system.cpu.instsIssued                       41321431                       # Number of instructions issued (Count)
system.cpu.squashedInstsIssued                   3345                       # Number of squashed instructions issued (Count)
system.cpu.squashedInstsExamined               847132                       # Number of squashed instructions iterated over during squash; mainly for profiling (Count)
system.cpu.squashedOperandsExamined            745850                       # Number of squashed operands that are examined and possibly removed from graph (Count)
system.cpu.squashedNonSpecRemoved                  41                       # Number of squashed non-spec instructions that were removed (Count)
system.cpu.numIssuedDist::samples            17935853                       # Number of insts issued each cycle (Count)
system.cpu.numIssuedDist::mean               2.303845                       # Number of insts issued each cycle (Count)
system.cpu.numIssuedDist::stdev              2.742716                       # Number of insts issued each cycle (Count)
system.cpu.numIssuedDist::underflows                0      0.00%      0.00% # Number of insts issued each cycle (Count)
system.cpu.numIssuedDist::0                   8882489     49.52%     49.52% # Number of insts issued each cycle (Count)
system.cpu.numIssuedDist::1                    857051      4.78%     54.30% # Number of insts issued each cycle (Count)
system.cpu.numIssuedDist::2                    940309      5.24%     59.54% # Number of insts issued each cycle (Count)
system.cpu.numIssuedDist::3                   1206883      6.73%     66.27% # Number of insts issued each cycle (Count)
system.cpu.numIssuedDist::4                   1535289      8.56%     74.83% # Number of insts issued each cycle (Count)
system.cpu.numIssuedDist::5                   1354280      7.55%     82.38% # Number of insts issued each cycle (Count)
system.cpu.numIssuedDist::6                   1197583      6.68%     89.06% # Number of insts issued each cycle (Count)
system.cpu.numIssuedDist::7                    830693      4.63%     93.69% # Number of insts issued each cycle (Count)
system.cpu.numIssuedDist::8                   1131276      6.31%    100.00% # Number of insts issued each cycle (Count)
system.cpu.numIssuedDist::overflows                 0      0.00%    100.00% # Number of insts issued each cycle (Count)
system.cpu.numIssuedDist::min_value                 0                       # Number of insts issued each cycle (Count)
system.cpu.numIssuedDist::max_value                 8                       # Number of insts issued each cycle (Count)
system.cpu.numIssuedDist::total              17935853                       # Number of insts issued each cycle (Count)
system.cpu.statFuBusy::No_OpClass                   0      0.00%      0.00% # attempts to use FU when none available (Count)
system.cpu.statFuBusy::IntAlu                  132869     41.38%     41.38% # attempts to use FU when none available (Count)
system.cpu.statFuBusy::IntMult                   2548      0.79%     42.17% # attempts to use FU when none available (Count)
system.cpu.statFuBusy::IntDiv                    1192      0.37%     42.54% # attempts to use FU when none available (Count)
system.cpu.statFuBusy::FloatAdd                     0      0.00%     42.54% # attempts to use FU when none available (Count)
system.cpu.statFuBusy::FloatCmp                     0      0.00%     42.54% # attempts to use FU when none available (Count)
system.cpu.statFuBusy::FloatCvt                     0      0.00%     42.54% # attempts to use FU when none available (Count)
system.cpu.statFuBusy::FloatMult                    0      0.00%     42.54% # attempts to use FU when none available (Count)
system.cpu.statFuBusy::FloatMultAcc                 0      0.00%     42.54% # attempts to use FU when none available (Count)
system.cpu.statFuBusy::FloatDiv                     0      0.00%     42.54% # attempts to use FU when none available (Count)
system.cpu.statFuBusy::FloatMisc                    0      0.00%     42.54% # attempts to use FU when none available (Count)
system.cpu.statFuBusy::FloatSqrt                    0      0.00%     42.54% # attempts to use FU when none available (Count)
system.cpu.statFuBusy::SimdAdd                   1610      0.50%     43.04% # attempts to use FU when none available (Count)
system.cpu.statFuBusy::SimdAddAcc                   0      0.00%     43.04% # attempts to use FU when none available (Count)
system.cpu.statFuBusy::SimdAlu                    184      0.06%     43.10% # attempts to use FU when none available (Count)
system.cpu.statFuBusy::SimdCmp                     17      0.01%     43.11% # attempts to use FU when none available (Count)
system.cpu.statFuBusy::SimdCvt                      0      0.00%     43.11% # attempts to use FU when none available (Count)
system.cpu.statFuBusy::SimdMisc                   213      0.07%     43.17% # attempts to use FU when none available (Count)
system.cpu.statFuBusy::SimdMult                 63241     19.69%     62.87% # attempts to use FU when none available (Count)
system.cpu.statFuBusy::SimdMultAcc              77235     24.05%     86.92% # attempts to use FU when none available (Count)
system.cpu.statFuBusy::SimdShift                    0      0.00%     86.92% # attempts to use FU when none available (Count)
system.cpu.statFuBusy::SimdShiftAcc                 0      0.00%     86.92% # attempts to use FU when none available (Count)
system.cpu.statFuBusy::SimdDiv                      0      0.00%     86.92% # attempts to use FU when none available (Count)
system.cpu.statFuBusy::SimdSqrt                     0      0.00%     86.92% # attempts to use FU when none available (Count)
system.cpu.statFuBusy::SimdFloatAdd                 0      0.00%     86.92% # attempts to use FU when none available (Count)
system.cpu.statFuBusy::SimdFloatAlu                 0      0.00%     86.92% # attempts to use FU when none available (Count)
system.cpu.statFuBusy::SimdFloatCmp                 0      0.00%     86.92% # attempts to use FU when none available (Count)
system.cpu.statFuBusy::SimdFloatCvt                 0      0.00%     86.92% # attempts to use FU when none available (Count)
system.cpu.statFuBusy::SimdFloatDiv                 0      0.00%     86.92% # attempts to use FU when none available (Count)
system.cpu.statFuBusy::SimdFloatMisc                0      0.00%     86.92% # attempts to use FU when none available (Count)
system.cpu.statFuBusy::SimdFloatMult                0      0.00%     86.92% # attempts to use FU when none available (Count)
system.cpu.statFuBusy::SimdFloatMultAcc             0      0.00%     86.92% # attempts to use FU when none available (Count)
system.cpu.statFuBusy::SimdFloatSqrt                0      0.00%     86.92% # attempts to use FU when none available (Count)
system.cpu.statFuBusy::SimdReduceAdd                0      0.00%     86.92% # attempts to use FU when none available (Count)
system.cpu.statFuBusy::SimdReduceAlu                0      0.00%     86.92% # attempts to use FU when none available (Count)
system.cpu.statFuBusy::SimdReduceCmp                0      0.00%     86.92% # attempts to use FU when none available (Count)
system.cpu.statFuBusy::SimdFloatReduceAdd            0      0.00%     86.92% # attempts to use FU when none available (Count)
system.cpu.statFuBusy::SimdFloatReduceCmp            0      0.00%     86.92% # attempts to use FU when none available (Count)
system.cpu.statFuBusy::SimdAes                      0      0.00%     86.92% # attempts to use FU when none available (Count)
system.cpu.statFuBusy::SimdAesMix                   0      0.00%     86.92% # attempts to use FU when none available (Count)
system.cpu.statFuBusy::SimdSha1Hash                 0      0.00%     86.92% # attempts to use FU when none available (Count)
system.cpu.statFuBusy::SimdSha1Hash2                0      0.00%     86.92% # attempts to use FU when none available (Count)
system.cpu.statFuBusy::SimdSha256Hash               0      0.00%     86.92% # attempts to use FU when none available (Count)
system.cpu.statFuBusy::SimdSha256Hash2              0      0.00%     86.92% # attempts to use FU when none available (Count)
system.cpu.statFuBusy::SimdShaSigma2                0      0.00%     86.92% # attempts to use FU when none available (Count)
system.cpu.statFuBusy::SimdShaSigma3                0      0.00%     86.92% # attempts to use FU when none available (Count)
system.cpu.statFuBusy::SimdPredAlu                  0      0.00%     86.92% # attempts to use FU when none available (Count)
system.cpu.statFuBusy::MemRead                  27228      8.48%     95.40% # attempts to use FU when none available (Count)
system.cpu.statFuBusy::MemWrite                 14784      4.60%    100.00% # attempts to use FU when none available (Count)
system.cpu.statFuBusy::FloatMemRead                 0      0.00%    100.00% # attempts to use FU when none available (Count)
system.cpu.statFuBusy::FloatMemWrite                0      0.00%    100.00% # attempts to use FU when none available (Count)
system.cpu.statFuBusy::IprAccess                    0      0.00%    100.00% # attempts to use FU when none available (Count)
system.cpu.statFuBusy::InstPrefetch                 0      0.00%    100.00% # attempts to use FU when none available (Count)
system.cpu.statIssuedInstType_0::No_OpClass          442      0.00%      0.00% # Number of instructions issued per FU type, per thread (Count)
system.cpu.statIssuedInstType_0::IntAlu      22536655     54.54%     54.54% # Number of instructions issued per FU type, per thread (Count)
system.cpu.statIssuedInstType_0::IntMult      1951158      4.72%     59.26% # Number of instructions issued per FU type, per thread (Count)
system.cpu.statIssuedInstType_0::IntDiv          2696      0.01%     59.27% # Number of instructions issued per FU type, per thread (Count)
system.cpu.statIssuedInstType_0::FloatAdd            0      0.00%     59.27% # Number of instructions issued per FU type, per thread (Count)
system.cpu.statIssuedInstType_0::FloatCmp            0      0.00%     59.27% # Number of instructions issued per FU type, per thread (Count)
system.cpu.statIssuedInstType_0::FloatCvt            0      0.00%     59.27% # Number of instructions issued per FU type, per thread (Count)
system.cpu.statIssuedInstType_0::FloatMult            0      0.00%     59.27% # Number of instructions issued per FU type, per thread (Count)
system.cpu.statIssuedInstType_0::FloatMultAcc            0      0.00%     59.27% # Number of instructions issued per FU type, per thread (Count)
system.cpu.statIssuedInstType_0::FloatDiv            0      0.00%     59.27% # Number of instructions issued per FU type, per thread (Count)
system.cpu.statIssuedInstType_0::FloatMisc            2      0.00%     59.27% # Number of instructions issued per FU type, per thread (Count)
system.cpu.statIssuedInstType_0::FloatSqrt            0      0.00%     59.27% # Number of instructions issued per FU type, per thread (Count)
system.cpu.statIssuedInstType_0::SimdAdd      1914996      4.63%     63.90% # Number of instructions issued per FU type, per thread (Count)
system.cpu.statIssuedInstType_0::SimdAddAcc            0      0.00%     63.90% # Number of instructions issued per FU type, per thread (Count)
system.cpu.statIssuedInstType_0::SimdAlu         1192      0.00%     63.91% # Number of instructions issued per FU type, per thread (Count)
system.cpu.statIssuedInstType_0::SimdCmp          125      0.00%     63.91% # Number of instructions issued per FU type, per thread (Count)
system.cpu.statIssuedInstType_0::SimdCvt            0      0.00%     63.91% # Number of instructions issued per FU type, per thread (Count)
system.cpu.statIssuedInstType_0::SimdMisc      1915296      4.64%     68.54% # Number of instructions issued per FU type, per thread (Count)
system.cpu.statIssuedInstType_0::SimdMult      2002429      4.85%     73.39% # Number of instructions issued per FU type, per thread (Count)
system.cpu.statIssuedInstType_0::SimdMultAcc      2899831      7.02%     80.41% # Number of instructions issued per FU type, per thread (Count)
system.cpu.statIssuedInstType_0::SimdShift            0      0.00%     80.41% # Number of instructions issued per FU type, per thread (Count)
system.cpu.statIssuedInstType_0::SimdShiftAcc            0      0.00%     80.41% # Number of instructions issued per FU type, per thread (Count)
system.cpu.statIssuedInstType_0::SimdDiv            0      0.00%     80.41% # Number of instructions issued per FU type, per thread (Count)
system.cpu.statIssuedInstType_0::SimdSqrt            0      0.00%     80.41% # Number of instructions issued per FU type, per thread (Count)
system.cpu.statIssuedInstType_0::SimdFloatAdd            0      0.00%     80.41% # Number of instructions issued per FU type, per thread (Count)
system.cpu.statIssuedInstType_0::SimdFloatAlu            0      0.00%     80.41% # Number of instructions issued per FU type, per thread (Count)
system.cpu.statIssuedInstType_0::SimdFloatCmp            0      0.00%     80.41% # Number of instructions issued per FU type, per thread (Count)
system.cpu.statIssuedInstType_0::SimdFloatCvt            0      0.00%     80.41% # Number of instructions issued per FU type, per thread (Count)
system.cpu.statIssuedInstType_0::SimdFloatDiv            0      0.00%     80.41% # Number of instructions issued per FU type, per thread (Count)
system.cpu.statIssuedInstType_0::SimdFloatMisc            0      0.00%     80.41% # Number of instructions issued per FU type, per thread (Count)
system.cpu.statIssuedInstType_0::SimdFloatMult            0      0.00%     80.41% # Number of instructions issued per FU type, per thread (Count)
system.cpu.statIssuedInstType_0::SimdFloatMultAcc            0      0.00%     80.41% # Number of instructions issued per FU type, per thread (Count)
system.cpu.statIssuedInstType_0::SimdFloatSqrt            0      0.00%     80.41% # Number of instructions issued per FU type, per thread (Count)
system.cpu.statIssuedInstType_0::SimdReduceAdd            0      0.00%     80.41% # Number of instructions issued per FU type, per thread (Count)
system.cpu.statIssuedInstType_0::SimdReduceAlu            0      0.00%     80.41% # Number of instructions issued per FU type, per thread (Count)
system.cpu.statIssuedInstType_0::SimdReduceCmp            0      0.00%     80.41% # Number of instructions issued per FU type, per thread (Count)
system.cpu.statIssuedInstType_0::SimdFloatReduceAdd            0      0.00%     80.41% # Number of instructions issued per FU type, per thread (Count)
system.cpu.statIssuedInstType_0::SimdFloatReduceCmp            0      0.00%     80.41% # Number of instructions issued per FU type, per thread (Count)
system.cpu.statIssuedInstType_0::SimdAes            0      0.00%     80.41% # Number of instructions issued per FU type, per thread (Count)
system.cpu.statIssuedInstType_0::SimdAesMix            0      0.00%     80.41% # Number of instructions issued per FU type, per thread (Count)
system.cpu.statIssuedInstType_0::SimdSha1Hash            0      0.00%     80.41% # Number of instructions issued per FU type, per thread (Count)
system.cpu.statIssuedInstType_0::SimdSha1Hash2            0      0.00%     80.41% # Number of instructions issued per FU type, per thread (Count)
system.cpu.statIssuedInstType_0::SimdSha256Hash            0      0.00%     80.41% # Number of instructions issued per FU type, per thread (Count)
system.cpu.statIssuedInstType_0::SimdSha256Hash2            0      0.00%     80.41% # Number of instructions issued per FU type, per thread (Count)
system.cpu.statIssuedInstType_0::SimdShaSigma2            0      0.00%     80.41% # Number of instructions issued per FU type, per thread (Count)
system.cpu.statIssuedInstType_0::SimdShaSigma3            0      0.00%     80.41% # Number of instructions issued per FU type, per thread (Count)
system.cpu.statIssuedInstType_0::SimdPredAlu            0      0.00%     80.41% # Number of instructions issued per FU type, per thread (Count)
system.cpu.statIssuedInstType_0::MemRead      5955212     14.41%     94.82% # Number of instructions issued per FU type, per thread (Count)
system.cpu.statIssuedInstType_0::MemWrite      2141397      5.18%    100.00% # Number of instructions issued per FU type, per thread (Count)
system.cpu.statIssuedInstType_0::FloatMemRead            0      0.00%    100.00% # Number of instructions issued per FU type, per thread (Count)
system.cpu.statIssuedInstType_0::FloatMemWrite            0      0.00%    100.00% # Number of instructions issued per FU type, per thread (Count)
system.cpu.statIssuedInstType_0::IprAccess            0      0.00%    100.00% # Number of instructions issued per FU type, per thread (Count)
system.cpu.statIssuedInstType_0::InstPrefetch            0      0.00%    100.00% # Number of instructions issued per FU type, per thread (Count)
system.cpu.statIssuedInstType_0::total       41321431                       # Number of instructions issued per FU type, per thread (Count)
system.cpu.issueRate                         2.288327                       # Inst issue rate ((Count/Cycle))
system.cpu.fuBusy                              321121                       # FU busy when requested (Count)
system.cpu.fuBusyRate                        0.007771                       # FU busy rate (busy events/executed inst) ((Count/Count))
system.cpu.intInstQueueReads                 78736066                       # Number of integer instruction queue reads (Count)
system.cpu.intInstQueueWrites                31339063                       # Number of integer instruction queue writes (Count)
system.cpu.intInstQueueWakeupAccesses        30192707                       # Number of integer instruction queue wakeup accesses (Count)
system.cpu.fpInstQueueReads                         0                       # Number of floating instruction queue reads (Count)
system.cpu.fpInstQueueWrites                        0                       # Number of floating instruction queue writes (Count)
system.cpu.fpInstQueueWakeupAccesses                0                       # Number of floating instruction queue wakeup accesses (Count)
system.cpu.vecInstQueueReads                 22167112                       # Number of vector instruction queue reads (Count)
system.cpu.vecInstQueueWrites                11115717                       # Number of vector instruction queue writes (Count)
system.cpu.vecInstQueueWakeupAccesses        11008478                       # Number of vector instruction queue wakeup accesses (Count)
system.cpu.intAluAccesses                    30487349                       # Number of integer alu accesses (Count)
system.cpu.fpAluAccesses                            0                       # Number of floating point alu accesses (Count)
system.cpu.vecAluAccesses                    11154761                       # Number of vector alu accesses (Count)
system.cpu.numInsts                          41272839                       # Number of executed instructions (Count)
system.cpu.numLoadInsts                       5941802                       # Number of load instructions executed (Count)
system.cpu.numSquashedInsts                     48589                       # Number of squashed instructions skipped in execute (Count)
system.cpu.numSwp                                   0                       # Number of swp insts executed (Count)
system.cpu.numNop                                 435                       # Number of nop insts executed (Count)
system.cpu.numRefs                            8081263                       # Number of memory reference insts executed (Count)
system.cpu.numBranches                        6496826                       # Number of branches executed (Count)
system.cpu.numStoreInsts                      2139461                       # Number of stores executed (Count)
system.cpu.numRate                           2.285636                       # Inst execution rate ((Count/Cycle))
system.cpu.timesIdled                            1325                       # Number of times that the entire CPU went into an idle state and unscheduled itself (Count)
system.cpu.idleCycles                          121632                       # Total number of cycles that the CPU has spent unscheduled due to idling (Cycle)
system.cpu.committedInsts                    40482002                       # Number of Instructions Simulated (Count)
system.cpu.committedOps                      40759442                       # Number of Ops (including micro ops) Simulated (Count)
system.cpu.cpi                               0.446062                       # CPI: Cycles Per Instruction ((Cycle/Count))
system.cpu.totalCpi                          0.446062                       # CPI: Total CPI of All Threads ((Cycle/Count))
system.cpu.ipc                               2.241841                       # IPC: Instructions Per Cycle ((Count/Cycle))
system.cpu.totalIpc                          2.241841                       # IPC: Total IPC of All Threads ((Count/Cycle))
system.cpu.intRegfileReads                   46824716                       # Number of integer regfile reads (Count)
system.cpu.intRegfileWrites                  15898653                       # Number of integer regfile writes (Count)
system.cpu.vecRegfileReads                   25629042                       # number of vector regfile reads (Count)
system.cpu.ccRegfileReads                    22979805                       # number of cc regfile reads (Count)
system.cpu.ccRegfileWrites                   23002623                       # number of cc regfile writes (Count)
system.cpu.miscRegfileReads                  22441054                       # number of misc regfile reads (Count)
system.cpu.miscRegfileWrites                       53                       # number of misc regfile writes (Count)
system.cpu.MemDepUnit__0.insertedLoads        5953231                       # Number of loads inserted to the mem dependence unit. (Count)
system.cpu.MemDepUnit__0.insertedStores       2158016                       # Number of stores inserted to the mem dependence unit. (Count)
system.cpu.MemDepUnit__0.conflictingLoads      1842638                       # Number of conflicting loads. (Count)
system.cpu.MemDepUnit__0.conflictingStores      1152317                       # Number of conflicting stores. (Count)
system.cpu.MemDepUnit__1.insertedLoads              0                       # Number of loads inserted to the mem dependence unit. (Count)
system.cpu.MemDepUnit__1.insertedStores             0                       # Number of stores inserted to the mem dependence unit. (Count)
system.cpu.MemDepUnit__1.conflictingLoads            0                       # Number of conflicting loads. (Count)
system.cpu.MemDepUnit__1.conflictingStores            0                       # Number of conflicting stores. (Count)
system.cpu.MemDepUnit__2.insertedLoads              0                       # Number of loads inserted to the mem dependence unit. (Count)
system.cpu.MemDepUnit__2.insertedStores             0                       # Number of stores inserted to the mem dependence unit. (Count)
system.cpu.MemDepUnit__2.conflictingLoads            0                       # Number of conflicting loads. (Count)
system.cpu.MemDepUnit__2.conflictingStores            0                       # Number of conflicting stores. (Count)
system.cpu.MemDepUnit__3.insertedLoads              0                       # Number of loads inserted to the mem dependence unit. (Count)
system.cpu.MemDepUnit__3.insertedStores             0                       # Number of stores inserted to the mem dependence unit. (Count)
system.cpu.MemDepUnit__3.conflictingLoads            0                       # Number of conflicting loads. (Count)
system.cpu.MemDepUnit__3.conflictingStores            0                       # Number of conflicting stores. (Count)
system.cpu.branchPred.lookups                 6672847                       # Number of BP lookups (Count)
system.cpu.branchPred.condPredicted           6599918                       # Number of conditional branches predicted (Count)
system.cpu.branchPred.condIncorrect             24095                       # Number of conditional branches incorrect (Count)
system.cpu.branchPred.BTBLookups               472881                       # Number of BTB lookups (Count)
system.cpu.branchPred.BTBUpdates                12601                       # Number of BTB updates (Count)
system.cpu.branchPred.BTBHits                  462234                       # Number of BTB hits (Count)
system.cpu.branchPred.BTBHitRatio            0.977485                       # BTB Hit Ratio (Ratio)
system.cpu.branchPred.RASUsed                   17186                       # Number of times the RAS was used to get a target. (Count)
system.cpu.branchPred.RASIncorrect                 32                       # Number of incorrect RAS predictions. (Count)
system.cpu.branchPred.indirectLookups            6039                       # Number of indirect predictor lookups. (Count)
system.cpu.branchPred.indirectHits               1322                       # Number of indirect target hits. (Count)
system.cpu.branchPred.indirectMisses             4717                       # Number of indirect misses. (Count)
system.cpu.branchPred.indirectMispredicted          583                       # Number of mispredicted indirect branches. (Count)
system.cpu.commit.commitSquashedInsts          840577                       # The number of squashed insts skipped by commit (Count)
system.cpu.commit.commitNonSpecStalls             111                       # The number of times commit has been forced to stall to communicate backwards (Count)
system.cpu.commit.branchMispredicts             23725                       # The number of times a branch was mispredicted (Count)
system.cpu.commit.numCommittedDist::samples     17810147                       # Number of insts commited each cycle (Count)
system.cpu.commit.numCommittedDist::mean     2.288561                       # Number of insts commited each cycle (Count)
system.cpu.commit.numCommittedDist::stdev     3.318786                       # Number of insts commited each cycle (Count)
system.cpu.commit.numCommittedDist::underflows            0      0.00%      0.00% # Number of insts commited each cycle (Count)
system.cpu.commit.numCommittedDist::0        10197172     57.25%     57.25% # Number of insts commited each cycle (Count)
system.cpu.commit.numCommittedDist::1         1551208      8.71%     65.96% # Number of insts commited each cycle (Count)
system.cpu.commit.numCommittedDist::2          864907      4.86%     70.82% # Number of insts commited each cycle (Count)
system.cpu.commit.numCommittedDist::3          445428      2.50%     73.32% # Number of insts commited each cycle (Count)
system.cpu.commit.numCommittedDist::4          272913      1.53%     74.85% # Number of insts commited each cycle (Count)
system.cpu.commit.numCommittedDist::5          155138      0.87%     75.73% # Number of insts commited each cycle (Count)
system.cpu.commit.numCommittedDist::6           84019      0.47%     76.20% # Number of insts commited each cycle (Count)
system.cpu.commit.numCommittedDist::7          144047      0.81%     77.01% # Number of insts commited each cycle (Count)
system.cpu.commit.numCommittedDist::8         4095315     22.99%    100.00% # Number of insts commited each cycle (Count)
system.cpu.commit.numCommittedDist::overflows            0      0.00%    100.00% # Number of insts commited each cycle (Count)
system.cpu.commit.numCommittedDist::min_value            0                       # Number of insts commited each cycle (Count)
system.cpu.commit.numCommittedDist::max_value            8                       # Number of insts commited each cycle (Count)
system.cpu.commit.numCommittedDist::total     17810147                       # Number of insts commited each cycle (Count)
system.cpu.commit.instsCommitted             40482171                       # Number of instructions committed (Count)
system.cpu.commit.opsCommitted               40759611                       # Number of ops (including micro ops) committed (Count)
system.cpu.commit.memRefs                     7922552                       # Number of memory references committed (Count)
system.cpu.commit.loads                       5813303                       # Number of loads committed (Count)
system.cpu.commit.amos                             26                       # Number of atomic instructions committed (Count)
system.cpu.commit.membars                          34                       # Number of memory barriers committed (Count)
system.cpu.commit.branches                    6431207                       # Number of branches committed (Count)
system.cpu.commit.vectorInstructions         10988639                       # Number of committed Vector instructions. (Count)
system.cpu.commit.floating                          0                       # Number of committed floating point instructions. (Count)
system.cpu.commit.integer                    28350495                       # Number of committed integer instructions. (Count)
system.cpu.commit.functionCalls                 10801                       # Number of function calls committed. (Count)
system.cpu.commit.committedInstType_0::No_OpClass           50      0.00%      0.00% # Class of committed instruction (Count)
system.cpu.commit.committedInstType_0::IntAlu     22181307     54.42%     54.42% # Class of committed instruction (Count)
system.cpu.commit.committedInstType_0::IntMult      1936374      4.75%     59.17% # Class of committed instruction (Count)
system.cpu.commit.committedInstType_0::IntDiv         2554      0.01%     59.18% # Class of committed instruction (Count)
system.cpu.commit.committedInstType_0::FloatAdd            0      0.00%     59.18% # Class of committed instruction (Count)
system.cpu.commit.committedInstType_0::FloatCmp            0      0.00%     59.18% # Class of committed instruction (Count)
system.cpu.commit.committedInstType_0::FloatCvt            0      0.00%     59.18% # Class of committed instruction (Count)
system.cpu.commit.committedInstType_0::FloatMult            0      0.00%     59.18% # Class of committed instruction (Count)
system.cpu.commit.committedInstType_0::FloatMultAcc            0      0.00%     59.18% # Class of committed instruction (Count)
system.cpu.commit.committedInstType_0::FloatDiv            0      0.00%     59.18% # Class of committed instruction (Count)
system.cpu.commit.committedInstType_0::FloatMisc            2      0.00%     59.18% # Class of committed instruction (Count)
system.cpu.commit.committedInstType_0::FloatSqrt            0      0.00%     59.18% # Class of committed instruction (Count)
system.cpu.commit.committedInstType_0::SimdAdd      1911503      4.69%     63.87% # Class of committed instruction (Count)
system.cpu.commit.committedInstType_0::SimdAddAcc            0      0.00%     63.87% # Class of committed instruction (Count)
system.cpu.commit.committedInstType_0::SimdAlu         1049      0.00%     63.87% # Class of committed instruction (Count)
system.cpu.commit.committedInstType_0::SimdCmp           97      0.00%     63.87% # Class of committed instruction (Count)
system.cpu.commit.committedInstType_0::SimdCvt            0      0.00%     63.87% # Class of committed instruction (Count)
system.cpu.commit.committedInstType_0::SimdMisc      1911579      4.69%     68.56% # Class of committed instruction (Count)
system.cpu.commit.committedInstType_0::SimdMult      1999104      4.90%     73.46% # Class of committed instruction (Count)
system.cpu.commit.committedInstType_0::SimdMultAcc      2893440      7.10%     80.56% # Class of committed instruction (Count)
system.cpu.commit.committedInstType_0::SimdShift            0      0.00%     80.56% # Class of committed instruction (Count)
system.cpu.commit.committedInstType_0::SimdShiftAcc            0      0.00%     80.56% # Class of committed instruction (Count)
system.cpu.commit.committedInstType_0::SimdDiv            0      0.00%     80.56% # Class of committed instruction (Count)
system.cpu.commit.committedInstType_0::SimdSqrt            0      0.00%     80.56% # Class of committed instruction (Count)
system.cpu.commit.committedInstType_0::SimdFloatAdd            0      0.00%     80.56% # Class of committed instruction (Count)
system.cpu.commit.committedInstType_0::SimdFloatAlu            0      0.00%     80.56% # Class of committed instruction (Count)
system.cpu.commit.committedInstType_0::SimdFloatCmp            0      0.00%     80.56% # Class of committed instruction (Count)
system.cpu.commit.committedInstType_0::SimdFloatCvt            0      0.00%     80.56% # Class of committed instruction (Count)
system.cpu.commit.committedInstType_0::SimdFloatDiv            0      0.00%     80.56% # Class of committed instruction (Count)
system.cpu.commit.committedInstType_0::SimdFloatMisc            0      0.00%     80.56% # Class of committed instruction (Count)
system.cpu.commit.committedInstType_0::SimdFloatMult            0      0.00%     80.56% # Class of committed instruction (Count)
system.cpu.commit.committedInstType_0::SimdFloatMultAcc            0      0.00%     80.56% # Class of committed instruction (Count)
system.cpu.commit.committedInstType_0::SimdFloatSqrt            0      0.00%     80.56% # Class of committed instruction (Count)
system.cpu.commit.committedInstType_0::SimdReduceAdd            0      0.00%     80.56% # Class of committed instruction (Count)
system.cpu.commit.committedInstType_0::SimdReduceAlu            0      0.00%     80.56% # Class of committed instruction (Count)
system.cpu.commit.committedInstType_0::SimdReduceCmp            0      0.00%     80.56% # Class of committed instruction (Count)
system.cpu.commit.committedInstType_0::SimdFloatReduceAdd            0      0.00%     80.56% # Class of committed instruction (Count)
system.cpu.commit.committedInstType_0::SimdFloatReduceCmp            0      0.00%     80.56% # Class of committed instruction (Count)
system.cpu.commit.committedInstType_0::SimdAes            0      0.00%     80.56% # Class of committed instruction (Count)
system.cpu.commit.committedInstType_0::SimdAesMix            0      0.00%     80.56% # Class of committed instruction (Count)
system.cpu.commit.committedInstType_0::SimdSha1Hash            0      0.00%     80.56% # Class of committed instruction (Count)
system.cpu.commit.committedInstType_0::SimdSha1Hash2            0      0.00%     80.56% # Class of committed instruction (Count)
system.cpu.commit.committedInstType_0::SimdSha256Hash            0      0.00%     80.56% # Class of committed instruction (Count)
system.cpu.commit.committedInstType_0::SimdSha256Hash2            0      0.00%     80.56% # Class of committed instruction (Count)
system.cpu.commit.committedInstType_0::SimdShaSigma2            0      0.00%     80.56% # Class of committed instruction (Count)
system.cpu.commit.committedInstType_0::SimdShaSigma3            0      0.00%     80.56% # Class of committed instruction (Count)
system.cpu.commit.committedInstType_0::SimdPredAlu            0      0.00%     80.56% # Class of committed instruction (Count)
system.cpu.commit.committedInstType_0::MemRead      5813303     14.26%     94.83% # Class of committed instruction (Count)
system.cpu.commit.committedInstType_0::MemWrite      2109249      5.17%    100.00% # Class of committed instruction (Count)
system.cpu.commit.committedInstType_0::FloatMemRead            0      0.00%    100.00% # Class of committed instruction (Count)
system.cpu.commit.committedInstType_0::FloatMemWrite            0      0.00%    100.00% # Class of committed instruction (Count)
system.cpu.commit.committedInstType_0::IprAccess            0      0.00%    100.00% # Class of committed instruction (Count)
system.cpu.commit.committedInstType_0::InstPrefetch            0      0.00%    100.00% # Class of committed instruction (Count)
system.cpu.commit.committedInstType_0::total     40759611                       # Class of committed instruction (Count)
system.cpu.commit.commitEligibleSamples       4095315                       # number cycles where commit BW limit reached (Cycle)
system.cpu.dcache.demandHits::cpu.data        7035537                       # number of demand (read+write) hits (Count)
system.cpu.dcache.demandHits::total           7035537                       # number of demand (read+write) hits (Count)
system.cpu.dcache.overallHits::cpu.data       7035537                       # number of overall hits (Count)
system.cpu.dcache.overallHits::total          7035537                       # number of overall hits (Count)
system.cpu.dcache.demandMisses::cpu.data       123196                       # number of demand (read+write) misses (Count)
system.cpu.dcache.demandMisses::total          123196                       # number of demand (read+write) misses (Count)
system.cpu.dcache.overallMisses::cpu.data       123196                       # number of overall misses (Count)
system.cpu.dcache.overallMisses::total         123196                       # number of overall misses (Count)
system.cpu.dcache.demandMissLatency::cpu.data   8908850001                       # number of demand (read+write) miss ticks (Tick)
system.cpu.dcache.demandMissLatency::total   8908850001                       # number of demand (read+write) miss ticks (Tick)
system.cpu.dcache.overallMissLatency::cpu.data   8908850001                       # number of overall miss ticks (Tick)
system.cpu.dcache.overallMissLatency::total   8908850001                       # number of overall miss ticks (Tick)
system.cpu.dcache.demandAccesses::cpu.data      7158733                       # number of demand (read+write) accesses (Count)
system.cpu.dcache.demandAccesses::total       7158733                       # number of demand (read+write) accesses (Count)
system.cpu.dcache.overallAccesses::cpu.data      7158733                       # number of overall (read+write) accesses (Count)
system.cpu.dcache.overallAccesses::total      7158733                       # number of overall (read+write) accesses (Count)
system.cpu.dcache.demandMissRate::cpu.data     0.017209                       # miss rate for demand accesses (Ratio)
system.cpu.dcache.demandMissRate::total      0.017209                       # miss rate for demand accesses (Ratio)
system.cpu.dcache.overallMissRate::cpu.data     0.017209                       # miss rate for overall accesses (Ratio)
system.cpu.dcache.overallMissRate::total     0.017209                       # miss rate for overall accesses (Ratio)
system.cpu.dcache.demandAvgMissLatency::cpu.data 72314.442035                       # average overall miss latency in ticks ((Tick/Count))
system.cpu.dcache.demandAvgMissLatency::total 72314.442035                       # average overall miss latency in ticks ((Tick/Count))
system.cpu.dcache.overallAvgMissLatency::cpu.data 72314.442035                       # average overall miss latency ((Tick/Count))
system.cpu.dcache.overallAvgMissLatency::total 72314.442035                       # average overall miss latency ((Tick/Count))
system.cpu.dcache.blockedCycles::no_mshrs       101945                       # number of cycles access was blocked (Cycle)
system.cpu.dcache.blockedCycles::no_targets          432                       # number of cycles access was blocked (Cycle)
system.cpu.dcache.blockedCauses::no_mshrs         2104                       # number of times access was blocked (Count)
system.cpu.dcache.blockedCauses::no_targets           11                       # number of times access was blocked (Count)
system.cpu.dcache.avgBlocked::no_mshrs      48.452947                       # average number of cycles each access was blocked ((Cycle/Count))
system.cpu.dcache.avgBlocked::no_targets    39.272727                       # average number of cycles each access was blocked ((Cycle/Count))
system.cpu.dcache.writebacks::writebacks        51402                       # number of writebacks (Count)
system.cpu.dcache.writebacks::total             51402                       # number of writebacks (Count)
system.cpu.dcache.demandMshrHits::cpu.data        50827                       # number of demand (read+write) MSHR hits (Count)
system.cpu.dcache.demandMshrHits::total         50827                       # number of demand (read+write) MSHR hits (Count)
system.cpu.dcache.overallMshrHits::cpu.data        50827                       # number of overall MSHR hits (Count)
system.cpu.dcache.overallMshrHits::total        50827                       # number of overall MSHR hits (Count)
system.cpu.dcache.demandMshrMisses::cpu.data        72369                       # number of demand (read+write) MSHR misses (Count)
system.cpu.dcache.demandMshrMisses::total        72369                       # number of demand (read+write) MSHR misses (Count)
system.cpu.dcache.overallMshrMisses::cpu.data        72369                       # number of overall MSHR misses (Count)
system.cpu.dcache.overallMshrMisses::total        72369                       # number of overall MSHR misses (Count)
system.cpu.dcache.demandMshrMissLatency::cpu.data   5422295205                       # number of demand (read+write) MSHR miss ticks (Tick)
system.cpu.dcache.demandMshrMissLatency::total   5422295205                       # number of demand (read+write) MSHR miss ticks (Tick)
system.cpu.dcache.overallMshrMissLatency::cpu.data   5422295205                       # number of overall MSHR miss ticks (Tick)
system.cpu.dcache.overallMshrMissLatency::total   5422295205                       # number of overall MSHR miss ticks (Tick)
system.cpu.dcache.demandMshrMissRate::cpu.data     0.010109                       # mshr miss ratio for demand accesses (Ratio)
system.cpu.dcache.demandMshrMissRate::total     0.010109                       # mshr miss ratio for demand accesses (Ratio)
system.cpu.dcache.overallMshrMissRate::cpu.data     0.010109                       # mshr miss ratio for overall accesses (Ratio)
system.cpu.dcache.overallMshrMissRate::total     0.010109                       # mshr miss ratio for overall accesses (Ratio)
system.cpu.dcache.demandAvgMshrMissLatency::cpu.data 74925.661609                       # average overall mshr miss latency ((Tick/Count))
system.cpu.dcache.demandAvgMshrMissLatency::total 74925.661609                       # average overall mshr miss latency ((Tick/Count))
system.cpu.dcache.overallAvgMshrMissLatency::cpu.data 74925.661609                       # average overall mshr miss latency ((Tick/Count))
system.cpu.dcache.overallAvgMshrMissLatency::total 74925.661609                       # average overall mshr miss latency ((Tick/Count))
system.cpu.dcache.replacements                  71345                       # number of replacements (Count)
system.cpu.dcache.ReadReq.hits::cpu.data      4931900                       # number of ReadReq hits (Count)
system.cpu.dcache.ReadReq.hits::total         4931900                       # number of ReadReq hits (Count)
system.cpu.dcache.ReadReq.misses::cpu.data       117596                       # number of ReadReq misses (Count)
system.cpu.dcache.ReadReq.misses::total        117596                       # number of ReadReq misses (Count)
system.cpu.dcache.ReadReq.missLatency::cpu.data   8576978500                       # number of ReadReq miss ticks (Tick)
system.cpu.dcache.ReadReq.missLatency::total   8576978500                       # number of ReadReq miss ticks (Tick)
system.cpu.dcache.ReadReq.accesses::cpu.data      5049496                       # number of ReadReq accesses(hits+misses) (Count)
system.cpu.dcache.ReadReq.accesses::total      5049496                       # number of ReadReq accesses(hits+misses) (Count)
system.cpu.dcache.ReadReq.missRate::cpu.data     0.023289                       # miss rate for ReadReq accesses (Ratio)
system.cpu.dcache.ReadReq.missRate::total     0.023289                       # miss rate for ReadReq accesses (Ratio)
system.cpu.dcache.ReadReq.avgMissLatency::cpu.data 72935.971462                       # average ReadReq miss latency ((Tick/Count))
system.cpu.dcache.ReadReq.avgMissLatency::total 72935.971462                       # average ReadReq miss latency ((Tick/Count))
system.cpu.dcache.ReadReq.mshrHits::cpu.data        47458                       # number of ReadReq MSHR hits (Count)
system.cpu.dcache.ReadReq.mshrHits::total        47458                       # number of ReadReq MSHR hits (Count)
system.cpu.dcache.ReadReq.mshrMisses::cpu.data        70138                       # number of ReadReq MSHR misses (Count)
system.cpu.dcache.ReadReq.mshrMisses::total        70138                       # number of ReadReq MSHR misses (Count)
system.cpu.dcache.ReadReq.mshrMissLatency::cpu.data   5290485500                       # number of ReadReq MSHR miss ticks (Tick)
system.cpu.dcache.ReadReq.mshrMissLatency::total   5290485500                       # number of ReadReq MSHR miss ticks (Tick)
system.cpu.dcache.ReadReq.mshrMissRate::cpu.data     0.013890                       # mshr miss rate for ReadReq accesses (Ratio)
system.cpu.dcache.ReadReq.mshrMissRate::total     0.013890                       # mshr miss rate for ReadReq accesses (Ratio)
system.cpu.dcache.ReadReq.avgMshrMissLatency::cpu.data 75429.660099                       # average ReadReq mshr miss latency ((Tick/Count))
system.cpu.dcache.ReadReq.avgMshrMissLatency::total 75429.660099                       # average ReadReq mshr miss latency ((Tick/Count))
system.cpu.dcache.SwapReq.hits::cpu.data           23                       # number of SwapReq hits (Count)
system.cpu.dcache.SwapReq.hits::total              23                       # number of SwapReq hits (Count)
system.cpu.dcache.SwapReq.misses::cpu.data            3                       # number of SwapReq misses (Count)
system.cpu.dcache.SwapReq.misses::total             3                       # number of SwapReq misses (Count)
system.cpu.dcache.SwapReq.missLatency::cpu.data       126000                       # number of SwapReq miss ticks (Tick)
system.cpu.dcache.SwapReq.missLatency::total       126000                       # number of SwapReq miss ticks (Tick)
system.cpu.dcache.SwapReq.accesses::cpu.data           26                       # number of SwapReq accesses(hits+misses) (Count)
system.cpu.dcache.SwapReq.accesses::total           26                       # number of SwapReq accesses(hits+misses) (Count)
system.cpu.dcache.SwapReq.missRate::cpu.data     0.115385                       # miss rate for SwapReq accesses (Ratio)
system.cpu.dcache.SwapReq.missRate::total     0.115385                       # miss rate for SwapReq accesses (Ratio)
system.cpu.dcache.SwapReq.avgMissLatency::cpu.data        42000                       # average SwapReq miss latency ((Tick/Count))
system.cpu.dcache.SwapReq.avgMissLatency::total        42000                       # average SwapReq miss latency ((Tick/Count))
system.cpu.dcache.SwapReq.mshrMisses::cpu.data            3                       # number of SwapReq MSHR misses (Count)
system.cpu.dcache.SwapReq.mshrMisses::total            3                       # number of SwapReq MSHR misses (Count)
system.cpu.dcache.SwapReq.mshrMissLatency::cpu.data       123000                       # number of SwapReq MSHR miss ticks (Tick)
system.cpu.dcache.SwapReq.mshrMissLatency::total       123000                       # number of SwapReq MSHR miss ticks (Tick)
system.cpu.dcache.SwapReq.mshrMissRate::cpu.data     0.115385                       # mshr miss rate for SwapReq accesses (Ratio)
system.cpu.dcache.SwapReq.mshrMissRate::total     0.115385                       # mshr miss rate for SwapReq accesses (Ratio)
system.cpu.dcache.SwapReq.avgMshrMissLatency::cpu.data        41000                       # average SwapReq mshr miss latency ((Tick/Count))
system.cpu.dcache.SwapReq.avgMshrMissLatency::total        41000                       # average SwapReq mshr miss latency ((Tick/Count))
system.cpu.dcache.WriteLineReq.misses::cpu.data          131                       # number of WriteLineReq misses (Count)
system.cpu.dcache.WriteLineReq.misses::total          131                       # number of WriteLineReq misses (Count)
system.cpu.dcache.WriteLineReq.missLatency::cpu.data      4174908                       # number of WriteLineReq miss ticks (Tick)
system.cpu.dcache.WriteLineReq.missLatency::total      4174908                       # number of WriteLineReq miss ticks (Tick)
system.cpu.dcache.WriteLineReq.accesses::cpu.data          131                       # number of WriteLineReq accesses(hits+misses) (Count)
system.cpu.dcache.WriteLineReq.accesses::total          131                       # number of WriteLineReq accesses(hits+misses) (Count)
system.cpu.dcache.WriteLineReq.missRate::cpu.data            1                       # miss rate for WriteLineReq accesses (Ratio)
system.cpu.dcache.WriteLineReq.missRate::total            1                       # miss rate for WriteLineReq accesses (Ratio)
system.cpu.dcache.WriteLineReq.avgMissLatency::cpu.data 31869.526718                       # average WriteLineReq miss latency ((Tick/Count))
system.cpu.dcache.WriteLineReq.avgMissLatency::total 31869.526718                       # average WriteLineReq miss latency ((Tick/Count))
system.cpu.dcache.WriteLineReq.mshrMisses::cpu.data          131                       # number of WriteLineReq MSHR misses (Count)
system.cpu.dcache.WriteLineReq.mshrMisses::total          131                       # number of WriteLineReq MSHR misses (Count)
system.cpu.dcache.WriteLineReq.mshrMissLatency::cpu.data      4043908                       # number of WriteLineReq MSHR miss ticks (Tick)
system.cpu.dcache.WriteLineReq.mshrMissLatency::total      4043908                       # number of WriteLineReq MSHR miss ticks (Tick)
system.cpu.dcache.WriteLineReq.mshrMissRate::cpu.data            1                       # mshr miss rate for WriteLineReq accesses (Ratio)
system.cpu.dcache.WriteLineReq.mshrMissRate::total            1                       # mshr miss rate for WriteLineReq accesses (Ratio)
system.cpu.dcache.WriteLineReq.avgMshrMissLatency::cpu.data 30869.526718                       # average WriteLineReq mshr miss latency ((Tick/Count))
system.cpu.dcache.WriteLineReq.avgMshrMissLatency::total 30869.526718                       # average WriteLineReq mshr miss latency ((Tick/Count))
system.cpu.dcache.WriteReq.hits::cpu.data      2103637                       # number of WriteReq hits (Count)
system.cpu.dcache.WriteReq.hits::total        2103637                       # number of WriteReq hits (Count)
system.cpu.dcache.WriteReq.misses::cpu.data         5469                       # number of WriteReq misses (Count)
system.cpu.dcache.WriteReq.misses::total         5469                       # number of WriteReq misses (Count)
system.cpu.dcache.WriteReq.missLatency::cpu.data    327696593                       # number of WriteReq miss ticks (Tick)
system.cpu.dcache.WriteReq.missLatency::total    327696593                       # number of WriteReq miss ticks (Tick)
system.cpu.dcache.WriteReq.accesses::cpu.data      2109106                       # number of WriteReq accesses(hits+misses) (Count)
system.cpu.dcache.WriteReq.accesses::total      2109106                       # number of WriteReq accesses(hits+misses) (Count)
system.cpu.dcache.WriteReq.missRate::cpu.data     0.002593                       # miss rate for WriteReq accesses (Ratio)
system.cpu.dcache.WriteReq.missRate::total     0.002593                       # miss rate for WriteReq accesses (Ratio)
system.cpu.dcache.WriteReq.avgMissLatency::cpu.data 59918.923569                       # average WriteReq miss latency ((Tick/Count))
system.cpu.dcache.WriteReq.avgMissLatency::total 59918.923569                       # average WriteReq miss latency ((Tick/Count))
system.cpu.dcache.WriteReq.mshrHits::cpu.data         3369                       # number of WriteReq MSHR hits (Count)
system.cpu.dcache.WriteReq.mshrHits::total         3369                       # number of WriteReq MSHR hits (Count)
system.cpu.dcache.WriteReq.mshrMisses::cpu.data         2100                       # number of WriteReq MSHR misses (Count)
system.cpu.dcache.WriteReq.mshrMisses::total         2100                       # number of WriteReq MSHR misses (Count)
system.cpu.dcache.WriteReq.mshrMissLatency::cpu.data    127765797                       # number of WriteReq MSHR miss ticks (Tick)
system.cpu.dcache.WriteReq.mshrMissLatency::total    127765797                       # number of WriteReq MSHR miss ticks (Tick)
system.cpu.dcache.WriteReq.mshrMissRate::cpu.data     0.000996                       # mshr miss rate for WriteReq accesses (Ratio)
system.cpu.dcache.WriteReq.mshrMissRate::total     0.000996                       # mshr miss rate for WriteReq accesses (Ratio)
system.cpu.dcache.WriteReq.avgMshrMissLatency::cpu.data 60840.855714                       # average WriteReq mshr miss latency ((Tick/Count))
system.cpu.dcache.WriteReq.avgMshrMissLatency::total 60840.855714                       # average WriteReq mshr miss latency ((Tick/Count))
system.cpu.dcache.power_state.pwrStateResidencyTicks::UNDEFINED   9028742000                       # Cumulative time (in ticks) in various power states (Tick)
system.cpu.dcache.tags.tagsInUse          1019.848785                       # Average ticks per tags in use ((Tick/Count))
system.cpu.dcache.tags.totalRefs              5127789                       # Total number of references to valid blocks. (Count)
system.cpu.dcache.tags.sampledRefs              71345                       # Sample count of references to valid blocks. (Count)
system.cpu.dcache.tags.avgRefs              71.873138                       # Average number of references to valid blocks. ((Count/Count))
system.cpu.dcache.tags.warmupTick              253500                       # The tick when the warmup percentage was hit. (Tick)
system.cpu.dcache.tags.occupancies::cpu.data  1019.848785                       # Average occupied blocks per tick, per requestor ((Count/Tick))
system.cpu.dcache.tags.avgOccs::cpu.data     0.995946                       # Average percentage of cache occupancy ((Ratio/Tick))
system.cpu.dcache.tags.avgOccs::total        0.995946                       # Average percentage of cache occupancy ((Ratio/Tick))
system.cpu.dcache.tags.occupanciesTaskId::1024         1024                       # Occupied blocks per task id (Count)
system.cpu.dcache.tags.ageTaskId_1024::0           65                       # Occupied blocks per task id, per block age (Count)
system.cpu.dcache.tags.ageTaskId_1024::1           65                       # Occupied blocks per task id, per block age (Count)
system.cpu.dcache.tags.ageTaskId_1024::2          151                       # Occupied blocks per task id, per block age (Count)
system.cpu.dcache.tags.ageTaskId_1024::3          743                       # Occupied blocks per task id, per block age (Count)
system.cpu.dcache.tags.ratioOccsTaskId::1024            1                       # Ratio of occupied blocks and all blocks, per task id (Ratio)
system.cpu.dcache.tags.tagAccesses           28707405                       # Number of tag accesses (Count)
system.cpu.dcache.tags.dataAccesses          28707405                       # Number of data accesses (Count)
system.cpu.dcache.tags.power_state.pwrStateResidencyTicks::UNDEFINED   9028742000                       # Cumulative time (in ticks) in various power states (Tick)
system.cpu.decode.idleCycles                  2137354                       # Number of cycles decode is idle (Cycle)
system.cpu.decode.blockedCycles              10278528                       # Number of cycles decode is blocked (Cycle)
system.cpu.decode.runCycles                   4792823                       # Number of cycles decode is running (Cycle)
system.cpu.decode.unblockCycles                702090                       # Number of cycles decode is unblocking (Cycle)
system.cpu.decode.squashCycles                  25058                       # Number of cycles decode is squashing (Cycle)
system.cpu.decode.branchResolved               438227                       # Number of times decode resolved a branch (Count)
system.cpu.decode.branchMispred                   746                       # Number of times decode detected a branch misprediction (Count)
system.cpu.decode.decodedInsts               41898985                       # Number of instructions handled by decode (Count)
system.cpu.decode.squashedInsts                  2505                       # Number of squashed instructions handled by decode (Count)
system.cpu.fetch.icacheStallCycles            2933466                       # Number of cycles fetch is stalled on an Icache miss (Cycle)
system.cpu.fetch.insts                       41821309                       # Number of instructions fetch has processed (Count)
system.cpu.fetch.branches                     6672847                       # Number of branches that fetch encountered (Count)
system.cpu.fetch.predictedBranches             480742                       # Number of branches that fetch has predicted taken (Count)
system.cpu.fetch.cycles                      14973683                       # Number of cycles fetch has run and was not squashing or blocked (Cycle)
system.cpu.fetch.squashCycles                   51568                       # Number of cycles fetch has spent squashing (Cycle)
system.cpu.fetch.miscStallCycles                  383                       # Number of cycles fetch has spent waiting on interrupts, or bad addresses, or out of MSHRs (Cycle)
system.cpu.fetch.pendingTrapStallCycles          2511                       # Number of stall cycles due to pending traps (Cycle)
system.cpu.fetch.icacheWaitRetryStallCycles           26                       # Number of stall cycles due to full MSHR (Cycle)
system.cpu.fetch.cacheLines                   2884022                       # Number of cache lines fetched (Count)
system.cpu.fetch.icacheSquashes                  6621                       # Number of outstanding Icache misses that were squashed (Count)
system.cpu.fetch.nisnDist::samples           17935853                       # Number of instructions fetched each cycle (Total) (Count)
system.cpu.fetch.nisnDist::mean              2.353155                       # Number of instructions fetched each cycle (Total) (Count)
system.cpu.fetch.nisnDist::stdev             3.563263                       # Number of instructions fetched each cycle (Total) (Count)
system.cpu.fetch.nisnDist::underflows               0      0.00%      0.00% # Number of instructions fetched each cycle (Total) (Count)
system.cpu.fetch.nisnDist::0                 12209177     68.07%     68.07% # Number of instructions fetched each cycle (Total) (Count)
system.cpu.fetch.nisnDist::1                   137192      0.76%     68.84% # Number of instructions fetched each cycle (Total) (Count)
system.cpu.fetch.nisnDist::2                    72759      0.41%     69.24% # Number of instructions fetched each cycle (Total) (Count)
system.cpu.fetch.nisnDist::3                   192637      1.07%     70.32% # Number of instructions fetched each cycle (Total) (Count)
system.cpu.fetch.nisnDist::4                   152480      0.85%     71.17% # Number of instructions fetched each cycle (Total) (Count)
system.cpu.fetch.nisnDist::5                   153083      0.85%     72.02% # Number of instructions fetched each cycle (Total) (Count)
system.cpu.fetch.nisnDist::6                    52975      0.30%     72.31% # Number of instructions fetched each cycle (Total) (Count)
system.cpu.fetch.nisnDist::7                    72358      0.40%     72.72% # Number of instructions fetched each cycle (Total) (Count)
system.cpu.fetch.nisnDist::8                  4893192     27.28%    100.00% # Number of instructions fetched each cycle (Total) (Count)
system.cpu.fetch.nisnDist::overflows                0      0.00%    100.00% # Number of instructions fetched each cycle (Total) (Count)
system.cpu.fetch.nisnDist::min_value                0                       # Number of instructions fetched each cycle (Total) (Count)
system.cpu.fetch.nisnDist::max_value                8                       # Number of instructions fetched each cycle (Total) (Count)
system.cpu.fetch.nisnDist::total             17935853                       # Number of instructions fetched each cycle (Total) (Count)
system.cpu.fetch.branchRate                  0.369534                       # Number of branch fetches per cycle (Ratio)
system.cpu.fetch.rate                        2.316010                       # Number of inst fetches per cycle ((Count/Cycle))
system.cpu.icache.demandHits::cpu.inst        2881646                       # number of demand (read+write) hits (Count)
system.cpu.icache.demandHits::total           2881646                       # number of demand (read+write) hits (Count)
system.cpu.icache.overallHits::cpu.inst       2881646                       # number of overall hits (Count)
system.cpu.icache.overallHits::total          2881646                       # number of overall hits (Count)
system.cpu.icache.demandMisses::cpu.inst         2376                       # number of demand (read+write) misses (Count)
system.cpu.icache.demandMisses::total            2376                       # number of demand (read+write) misses (Count)
system.cpu.icache.overallMisses::cpu.inst         2376                       # number of overall misses (Count)
system.cpu.icache.overallMisses::total           2376                       # number of overall misses (Count)
system.cpu.icache.demandMissLatency::cpu.inst    154663999                       # number of demand (read+write) miss ticks (Tick)
system.cpu.icache.demandMissLatency::total    154663999                       # number of demand (read+write) miss ticks (Tick)
system.cpu.icache.overallMissLatency::cpu.inst    154663999                       # number of overall miss ticks (Tick)
system.cpu.icache.overallMissLatency::total    154663999                       # number of overall miss ticks (Tick)
system.cpu.icache.demandAccesses::cpu.inst      2884022                       # number of demand (read+write) accesses (Count)
system.cpu.icache.demandAccesses::total       2884022                       # number of demand (read+write) accesses (Count)
system.cpu.icache.overallAccesses::cpu.inst      2884022                       # number of overall (read+write) accesses (Count)
system.cpu.icache.overallAccesses::total      2884022                       # number of overall (read+write) accesses (Count)
system.cpu.icache.demandMissRate::cpu.inst     0.000824                       # miss rate for demand accesses (Ratio)
system.cpu.icache.demandMissRate::total      0.000824                       # miss rate for demand accesses (Ratio)
system.cpu.icache.overallMissRate::cpu.inst     0.000824                       # miss rate for overall accesses (Ratio)
system.cpu.icache.overallMissRate::total     0.000824                       # miss rate for overall accesses (Ratio)
system.cpu.icache.demandAvgMissLatency::cpu.inst 65094.275673                       # average overall miss latency in ticks ((Tick/Count))
system.cpu.icache.demandAvgMissLatency::total 65094.275673                       # average overall miss latency in ticks ((Tick/Count))
system.cpu.icache.overallAvgMissLatency::cpu.inst 65094.275673                       # average overall miss latency ((Tick/Count))
system.cpu.icache.overallAvgMissLatency::total 65094.275673                       # average overall miss latency ((Tick/Count))
system.cpu.icache.blockedCycles::no_mshrs          435                       # number of cycles access was blocked (Cycle)
system.cpu.icache.blockedCycles::no_targets            0                       # number of cycles access was blocked (Cycle)
system.cpu.icache.blockedCauses::no_mshrs           10                       # number of times access was blocked (Count)
system.cpu.icache.blockedCauses::no_targets            0                       # number of times access was blocked (Count)
system.cpu.icache.avgBlocked::no_mshrs      43.500000                       # average number of cycles each access was blocked ((Cycle/Count))
system.cpu.icache.avgBlocked::no_targets          nan                       # average number of cycles each access was blocked ((Cycle/Count))
system.cpu.icache.writebacks::writebacks         1604                       # number of writebacks (Count)
system.cpu.icache.writebacks::total              1604                       # number of writebacks (Count)
system.cpu.icache.demandMshrHits::cpu.inst          516                       # number of demand (read+write) MSHR hits (Count)
system.cpu.icache.demandMshrHits::total           516                       # number of demand (read+write) MSHR hits (Count)
system.cpu.icache.overallMshrHits::cpu.inst          516                       # number of overall MSHR hits (Count)
system.cpu.icache.overallMshrHits::total          516                       # number of overall MSHR hits (Count)
system.cpu.icache.demandMshrMisses::cpu.inst         1860                       # number of demand (read+write) MSHR misses (Count)
system.cpu.icache.demandMshrMisses::total         1860                       # number of demand (read+write) MSHR misses (Count)
system.cpu.icache.overallMshrMisses::cpu.inst         1860                       # number of overall MSHR misses (Count)
system.cpu.icache.overallMshrMisses::total         1860                       # number of overall MSHR misses (Count)
system.cpu.icache.demandMshrMissLatency::cpu.inst    121693000                       # number of demand (read+write) MSHR miss ticks (Tick)
system.cpu.icache.demandMshrMissLatency::total    121693000                       # number of demand (read+write) MSHR miss ticks (Tick)
system.cpu.icache.overallMshrMissLatency::cpu.inst    121693000                       # number of overall MSHR miss ticks (Tick)
system.cpu.icache.overallMshrMissLatency::total    121693000                       # number of overall MSHR miss ticks (Tick)
system.cpu.icache.demandMshrMissRate::cpu.inst     0.000645                       # mshr miss ratio for demand accesses (Ratio)
system.cpu.icache.demandMshrMissRate::total     0.000645                       # mshr miss ratio for demand accesses (Ratio)
system.cpu.icache.overallMshrMissRate::cpu.inst     0.000645                       # mshr miss ratio for overall accesses (Ratio)
system.cpu.icache.overallMshrMissRate::total     0.000645                       # mshr miss ratio for overall accesses (Ratio)
system.cpu.icache.demandAvgMshrMissLatency::cpu.inst 65426.344086                       # average overall mshr miss latency ((Tick/Count))
system.cpu.icache.demandAvgMshrMissLatency::total 65426.344086                       # average overall mshr miss latency ((Tick/Count))
system.cpu.icache.overallAvgMshrMissLatency::cpu.inst 65426.344086                       # average overall mshr miss latency ((Tick/Count))
system.cpu.icache.overallAvgMshrMissLatency::total 65426.344086                       # average overall mshr miss latency ((Tick/Count))
system.cpu.icache.replacements                   1604                       # number of replacements (Count)
system.cpu.icache.ReadReq.hits::cpu.inst      2881646                       # number of ReadReq hits (Count)
system.cpu.icache.ReadReq.hits::total         2881646                       # number of ReadReq hits (Count)
system.cpu.icache.ReadReq.misses::cpu.inst         2376                       # number of ReadReq misses (Count)
system.cpu.icache.ReadReq.misses::total          2376                       # number of ReadReq misses (Count)
system.cpu.icache.ReadReq.missLatency::cpu.inst    154663999                       # number of ReadReq miss ticks (Tick)
system.cpu.icache.ReadReq.missLatency::total    154663999                       # number of ReadReq miss ticks (Tick)
system.cpu.icache.ReadReq.accesses::cpu.inst      2884022                       # number of ReadReq accesses(hits+misses) (Count)
system.cpu.icache.ReadReq.accesses::total      2884022                       # number of ReadReq accesses(hits+misses) (Count)
system.cpu.icache.ReadReq.missRate::cpu.inst     0.000824                       # miss rate for ReadReq accesses (Ratio)
system.cpu.icache.ReadReq.missRate::total     0.000824                       # miss rate for ReadReq accesses (Ratio)
system.cpu.icache.ReadReq.avgMissLatency::cpu.inst 65094.275673                       # average ReadReq miss latency ((Tick/Count))
system.cpu.icache.ReadReq.avgMissLatency::total 65094.275673                       # average ReadReq miss latency ((Tick/Count))
system.cpu.icache.ReadReq.mshrHits::cpu.inst          516                       # number of ReadReq MSHR hits (Count)
system.cpu.icache.ReadReq.mshrHits::total          516                       # number of ReadReq MSHR hits (Count)
system.cpu.icache.ReadReq.mshrMisses::cpu.inst         1860                       # number of ReadReq MSHR misses (Count)
system.cpu.icache.ReadReq.mshrMisses::total         1860                       # number of ReadReq MSHR misses (Count)
system.cpu.icache.ReadReq.mshrMissLatency::cpu.inst    121693000                       # number of ReadReq MSHR miss ticks (Tick)
system.cpu.icache.ReadReq.mshrMissLatency::total    121693000                       # number of ReadReq MSHR miss ticks (Tick)
system.cpu.icache.ReadReq.mshrMissRate::cpu.inst     0.000645                       # mshr miss rate for ReadReq accesses (Ratio)
system.cpu.icache.ReadReq.mshrMissRate::total     0.000645                       # mshr miss rate for ReadReq accesses (Ratio)
system.cpu.icache.ReadReq.avgMshrMissLatency::cpu.inst 65426.344086                       # average ReadReq mshr miss latency ((Tick/Count))
system.cpu.icache.ReadReq.avgMshrMissLatency::total 65426.344086                       # average ReadReq mshr miss latency ((Tick/Count))
system.cpu.icache.power_state.pwrStateResidencyTicks::UNDEFINED   9028742000                       # Cumulative time (in ticks) in various power states (Tick)
system.cpu.icache.tags.tagsInUse           255.563868                       # Average ticks per tags in use ((Tick/Count))
system.cpu.icache.tags.totalRefs               184305                       # Total number of references to valid blocks. (Count)
system.cpu.icache.tags.sampledRefs               1604                       # Sample count of references to valid blocks. (Count)
system.cpu.icache.tags.avgRefs             114.903367                       # Average number of references to valid blocks. ((Count/Count))
system.cpu.icache.tags.warmupTick               87500                       # The tick when the warmup percentage was hit. (Tick)
system.cpu.icache.tags.occupancies::cpu.inst   255.563868                       # Average occupied blocks per tick, per requestor ((Count/Tick))
system.cpu.icache.tags.avgOccs::cpu.inst     0.998296                       # Average percentage of cache occupancy ((Ratio/Tick))
system.cpu.icache.tags.avgOccs::total        0.998296                       # Average percentage of cache occupancy ((Ratio/Tick))
system.cpu.icache.tags.occupanciesTaskId::1024          256                       # Occupied blocks per task id (Count)
system.cpu.icache.tags.ageTaskId_1024::3          256                       # Occupied blocks per task id, per block age (Count)
system.cpu.icache.tags.ratioOccsTaskId::1024            1                       # Ratio of occupied blocks and all blocks, per task id (Ratio)
system.cpu.icache.tags.tagAccesses           11537948                       # Number of tag accesses (Count)
system.cpu.icache.tags.dataAccesses          11537948                       # Number of data accesses (Count)
system.cpu.icache.tags.power_state.pwrStateResidencyTicks::UNDEFINED   9028742000                       # Cumulative time (in ticks) in various power states (Tick)
system.cpu.iew.idleCycles                           0                       # Number of cycles IEW is idle (Cycle)
system.cpu.iew.squashCycles                     25058                       # Number of cycles IEW is squashing (Cycle)
system.cpu.iew.blockCycles                    1435279                       # Number of cycles IEW is blocking (Cycle)
system.cpu.iew.unblockCycles                   108493                       # Number of cycles IEW is unblocking (Cycle)
system.cpu.iew.dispatchedInsts               41607174                       # Number of instructions dispatched to IQ (Count)
system.cpu.iew.dispSquashedInsts                 5357                       # Number of squashed instructions skipped by dispatch (Count)
system.cpu.iew.dispLoadInsts                  5953231                       # Number of dispatched load instructions (Count)
system.cpu.iew.dispStoreInsts                 2158016                       # Number of dispatched store instructions (Count)
system.cpu.iew.dispNonSpecInsts                   146                       # Number of dispatched non-speculative instructions (Count)
system.cpu.iew.iqFullEvents                     13082                       # Number of times the IQ has become full, causing a stall (Count)
system.cpu.iew.lsqFullEvents                    85320                       # Number of times the LSQ has become full, causing a stall (Count)
system.cpu.iew.memOrderViolationEvents            916                       # Number of memory order violations (Count)
system.cpu.iew.predictedTakenIncorrect          11756                       # Number of branches that were predicted taken incorrectly (Count)
system.cpu.iew.predictedNotTakenIncorrect        18027                       # Number of branches that were predicted not taken incorrectly (Count)
system.cpu.iew.branchMispredicts                29783                       # Number of branch mispredicts detected at execute (Count)
system.cpu.iew.instsToCommit                 41213648                       # Cumulative count of insts sent to commit (Count)
system.cpu.iew.writebackCount                41201185                       # Cumulative count of insts written-back (Count)
system.cpu.iew.producerInst                  28061769                       # Number of instructions producing a value (Count)
system.cpu.iew.consumerInst                  45725606                       # Number of instructions consuming a value (Count)
system.cpu.iew.wbRate                        2.281668                       # Insts written-back per cycle ((Count/Cycle))
system.cpu.iew.wbFanout                      0.613699                       # Average fanout of values written-back ((Count/Count))
system.cpu.lsq0.forwLoads                      858280                       # Number of loads that had data forwarded from stores (Count)
system.cpu.lsq0.squashedLoads                  139899                       # Number of loads squashed (Count)
system.cpu.lsq0.ignoredResponses                   53                       # Number of memory responses ignored because the instruction is squashed (Count)
system.cpu.lsq0.memOrderViolation                 916                       # Number of memory ordering violations (Count)
system.cpu.lsq0.squashedStores                  48742                       # Number of stores squashed (Count)
system.cpu.lsq0.rescheduledLoads                 9258                       # Number of loads that were rescheduled (Count)
system.cpu.lsq0.blockedByCache                   2013                       # Number of times an access to memory failed due to the cache being blocked (Count)
system.cpu.lsq0.loadToUse::samples            5813303                       # Distribution of cycle latency between the first time a load is issued and its completion (Unspecified)
system.cpu.lsq0.loadToUse::mean              5.928597                       # Distribution of cycle latency between the first time a load is issued and its completion (Unspecified)
system.cpu.lsq0.loadToUse::stdev            23.835224                       # Distribution of cycle latency between the first time a load is issued and its completion (Unspecified)
system.cpu.lsq0.loadToUse::0-9                5703378     98.11%     98.11% # Distribution of cycle latency between the first time a load is issued and its completion (Unspecified)
system.cpu.lsq0.loadToUse::10-19                 2824      0.05%     98.16% # Distribution of cycle latency between the first time a load is issued and its completion (Unspecified)
system.cpu.lsq0.loadToUse::20-29                 7874      0.14%     98.29% # Distribution of cycle latency between the first time a load is issued and its completion (Unspecified)
system.cpu.lsq0.loadToUse::30-39                 1078      0.02%     98.31% # Distribution of cycle latency between the first time a load is issued and its completion (Unspecified)
system.cpu.lsq0.loadToUse::40-49                  880      0.02%     98.33% # Distribution of cycle latency between the first time a load is issued and its completion (Unspecified)
system.cpu.lsq0.loadToUse::50-59                  255      0.00%     98.33% # Distribution of cycle latency between the first time a load is issued and its completion (Unspecified)
[...]
system.mem_ctrls.dram.perBankWrBursts::7           64                       # Per bank write bursts (Count)
system.mem_ctrls.dram.perBankWrBursts::8           47                       # Per bank write bursts (Count)
system.mem_ctrls.dram.perBankWrBursts::9           30                       # Per bank write bursts (Count)
system.mem_ctrls.dram.perBankWrBursts::10           39                       # Per bank write bursts (Count)
system.mem_ctrls.dram.perBankWrBursts::11           26                       # Per bank write bursts (Count)
system.mem_ctrls.dram.perBankWrBursts::12           44                       # Per bank write bursts (Count)
system.mem_ctrls.dram.perBankWrBursts::13           35                       # Per bank write bursts (Count)
system.mem_ctrls.dram.perBankWrBursts::14           42                       # Per bank write bursts (Count)
system.mem_ctrls.dram.perBankWrBursts::15           27                       # Per bank write bursts (Count)
system.mem_ctrls.dram.totQLat                16173750                       # Total ticks spent queuing (Tick)
system.mem_ctrls.dram.totBusLat               2775000                       # Total ticks spent in databus transfers (Tick)
system.mem_ctrls.dram.totMemAccLat           26580000                       # Total ticks spent from burst creation until serviced by the DRAM (Tick)
system.mem_ctrls.dram.avgQLat                29141.89                       # Average queueing delay per DRAM burst ((Tick/Count))
system.mem_ctrls.dram.avgBusLat               5000.00                       # Average bus latency per DRAM burst ((Tick/Count))
system.mem_ctrls.dram.avgMemAccLat           47891.89                       # Average memory access latency per DRAM burst ((Tick/Count))
system.mem_ctrls.dram.readRowHits                 310                       # Number of row buffer hits during reads (Count)
system.mem_ctrls.dram.writeRowHits                546                       # Number of row buffer hits during writes (Count)
system.mem_ctrls.dram.readRowHitRate            55.86                       # Row buffer hit rate for reads (Ratio)
system.mem_ctrls.dram.writeRowHitRate           73.68                       # Row buffer hit rate for writes (Ratio)
system.mem_ctrls.dram.bytesPerActivate::samples          437                       # Bytes accessed per row activation (Byte)
system.mem_ctrls.dram.bytesPerActivate::mean   190.096110                       # Bytes accessed per row activation (Byte)
system.mem_ctrls.dram.bytesPerActivate::gmean   137.468177                       # Bytes accessed per row activation (Byte)
system.mem_ctrls.dram.bytesPerActivate::stdev   174.589531                       # Bytes accessed per row activation (Byte)
system.mem_ctrls.dram.bytesPerActivate::0-127          181     41.42%     41.42% # Bytes accessed per row activation (Byte)
system.mem_ctrls.dram.bytesPerActivate::128-255          137     31.35%     72.77% # Bytes accessed per row activation (Byte)
system.mem_ctrls.dram.bytesPerActivate::256-383           55     12.59%     85.35% # Bytes accessed per row activation (Byte)
system.mem_ctrls.dram.bytesPerActivate::384-511           31      7.09%     92.45% # Bytes accessed per row activation (Byte)
system.mem_ctrls.dram.bytesPerActivate::512-639           12      2.75%     95.19% # Bytes accessed per row activation (Byte)
system.mem_ctrls.dram.bytesPerActivate::640-767           13      2.97%     98.17% # Bytes accessed per row activation (Byte)
system.mem_ctrls.dram.bytesPerActivate::768-895            3      0.69%     98.86% # Bytes accessed per row activation (Byte)
system.mem_ctrls.dram.bytesPerActivate::896-1023            4      0.92%     99.77% # Bytes accessed per row activation (Byte)
system.mem_ctrls.dram.bytesPerActivate::1024-1151            1      0.23%    100.00% # Bytes accessed per row activation (Byte)
system.mem_ctrls.dram.bytesPerActivate::total          437                       # Bytes accessed per row activation (Byte)
system.mem_ctrls.dram.bytesRead                 35520                       # Total bytes read (Byte)
system.mem_ctrls.dram.bytesWritten              47424                       # Total bytes written (Byte)
system.mem_ctrls.dram.avgRdBW             1185.699503                       # Average DRAM read bandwidth in MiBytes/s ((Byte/Second))
system.mem_ctrls.dram.avgWrBW             1583.069066                       # Average DRAM write bandwidth in MiBytes/s ((Byte/Second))
system.mem_ctrls.dram.peakBW                 12800.00                       # Theoretical peak bandwidth in MiByte/s ((Byte/Second))
system.mem_ctrls.dram.busUtil                   21.63                       # Data bus utilization in percentage (Ratio)
system.mem_ctrls.dram.busUtilRead                9.26                       # Data bus utilization in percentage for reads (Ratio)
system.mem_ctrls.dram.busUtilWrite              12.37                       # Data bus utilization in percentage for writes (Ratio)
system.mem_ctrls.dram.pageHitRate               66.05                       # Row buffer hit rate, read and write combined (Ratio)
system.mem_ctrls.dram.power_state.pwrStateResidencyTicks::UNDEFINED     29957000                       # Cumulative time (in ticks) in various power states (Tick)
system.mem_ctrls.dram.rank0.actEnergy         1663620                       # Energy for activate commands per rank (pJ) (Joule)
system.mem_ctrls.dram.rank0.preEnergy          865260                       # Energy for precharge commands per rank (pJ) (Joule)
system.mem_ctrls.dram.rank0.readEnergy        1877820                       # Energy for read commands per rank (pJ) (Joule)
system.mem_ctrls.dram.rank0.writeEnergy       2354220                       # Energy for write commands per rank (pJ) (Joule)
system.mem_ctrls.dram.rank0.refreshEnergy 2458560.000000                       # Energy for refresh commands per rank (pJ) (Joule)
system.mem_ctrls.dram.rank0.actBackEnergy     13474800                       # Energy for active background per rank (pJ) (Joule)
system.mem_ctrls.dram.rank0.preBackEnergy       156480                       # Energy for precharge background per rank (pJ) (Joule)
system.mem_ctrls.dram.rank0.actPowerDownEnergy            0                       # Energy for active power-down per rank (pJ) (Joule)
system.mem_ctrls.dram.rank0.prePowerDownEnergy            0                       # Energy for precharge power-down per rank (pJ) (Joule)
system.mem_ctrls.dram.rank0.selfRefreshEnergy            0                       # Energy for self refresh per rank (pJ) (Joule)
system.mem_ctrls.dram.rank0.totalEnergy      22850760                       # Total energy per rank (pJ) (Joule)
system.mem_ctrls.dram.rank0.averagePower   762.785326                       # Core power per rank (mW) (Watt)
system.mem_ctrls.dram.rank0.totalIdleTime            0                       # Total Idle time Per DRAM Rank (Tick)
system.mem_ctrls.dram.rank0.pwrStateTime::IDLE       296000                       # Time in different power states (Tick)
system.mem_ctrls.dram.rank0.pwrStateTime::REF      1040000                       # Time in different power states (Tick)
system.mem_ctrls.dram.rank0.pwrStateTime::SREF            0                       # Time in different power states (Tick)
system.mem_ctrls.dram.rank0.pwrStateTime::PRE_PDN            0                       # Time in different power states (Tick)
system.mem_ctrls.dram.rank0.pwrStateTime::ACT     28621000                       # Time in different power states (Tick)
system.mem_ctrls.dram.rank0.pwrStateTime::ACT_PDN            0                       # Time in different power states (Tick)
system.mem_ctrls.dram.rank1.actEnergy         1477980                       # Energy for activate commands per rank (pJ) (Joule)
system.mem_ctrls.dram.rank1.preEnergy          793155                       # Energy for precharge commands per rank (pJ) (Joule)
system.mem_ctrls.dram.rank1.readEnergy        2084880                       # Energy for read commands per rank (pJ) (Joule)
system.mem_ctrls.dram.rank1.writeEnergy       1513800                       # Energy for write commands per rank (pJ) (Joule)
system.mem_ctrls.dram.rank1.refreshEnergy 2458560.000000                       # Energy for refresh commands per rank (pJ) (Joule)
system.mem_ctrls.dram.rank1.actBackEnergy     13486200                       # Energy for active background per rank (pJ) (Joule)
system.mem_ctrls.dram.rank1.preBackEnergy       146880                       # Energy for precharge background per rank (pJ) (Joule)
system.mem_ctrls.dram.rank1.actPowerDownEnergy            0                       # Energy for active power-down per rank (pJ) (Joule)
system.mem_ctrls.dram.rank1.prePowerDownEnergy            0                       # Energy for precharge power-down per rank (pJ) (Joule)
system.mem_ctrls.dram.rank1.selfRefreshEnergy            0                       # Energy for self refresh per rank (pJ) (Joule)
system.mem_ctrls.dram.rank1.totalEnergy      21961455                       # Total energy per rank (pJ) (Joule)
system.mem_ctrls.dram.rank1.averagePower   733.099276                       # Core power per rank (mW) (Watt)
system.mem_ctrls.dram.rank1.totalIdleTime            0                       # Total Idle time Per DRAM Rank (Tick)
system.mem_ctrls.dram.rank1.pwrStateTime::IDLE       272250                       # Time in different power states (Tick)
system.mem_ctrls.dram.rank1.pwrStateTime::REF      1040000                       # Time in different power states (Tick)
system.mem_ctrls.dram.rank1.pwrStateTime::SREF            0                       # Time in different power states (Tick)
system.mem_ctrls.dram.rank1.pwrStateTime::PRE_PDN            0                       # Time in different power states (Tick)
system.mem_ctrls.dram.rank1.pwrStateTime::ACT     28644750                       # Time in different power states (Tick)
system.mem_ctrls.dram.rank1.pwrStateTime::ACT_PDN            0                       # Time in different power states (Tick)
system.mem_ctrls.power_state.pwrStateResidencyTicks::UNDEFINED     29957000                       # Cumulative time (in ticks) in various power states (Tick)
system.membus.transDist::ReadResp                 532                       # Transaction distribution (Count)
system.membus.transDist::WritebackDirty           731                       # Transaction distribution (Count)
system.membus.transDist::CleanEvict                12                       # Transaction distribution (Count)
system.membus.transDist::ReadExReq                 24                       # Transaction distribution (Count)
system.membus.transDist::ReadExResp                24                       # Transaction distribution (Count)
system.membus.transDist::ReadSharedReq            531                       # Transaction distribution (Count)
system.membus.pktCount_system.l2.mem_side_port::system.mem_ctrls.port         1854                       # Packet count per connected requestor and responder (Count)
system.membus.pktCount::total                    1854                       # Packet count per connected requestor and responder (Count)
system.membus.pktSize_system.l2.mem_side_port::system.mem_ctrls.port        82368                       # Cumulative packet size per connected requestor and responder (Byte)
system.membus.pktSize::total                    82368                       # Cumulative packet size per connected requestor and responder (Byte)
system.membus.snoops                                0                       # Total snoops (Count)
system.membus.snoopTraffic                          0                       # Total snoop traffic (Byte)
system.membus.snoopFanout::samples                555                       # Request fanout histogram (Count)
system.membus.snoopFanout::mean                     0                       # Request fanout histogram (Count)
system.membus.snoopFanout::stdev                    0                       # Request fanout histogram (Count)
system.membus.snoopFanout::underflows               0      0.00%      0.00% # Request fanout histogram (Count)
system.membus.snoopFanout::0                      555    100.00%    100.00% # Request fanout histogram (Count)
system.membus.snoopFanout::1                        0      0.00%    100.00% # Request fanout histogram (Count)
system.membus.snoopFanout::overflows                0      0.00%    100.00% # Request fanout histogram (Count)
system.membus.snoopFanout::min_value                0                       # Request fanout histogram (Count)
system.membus.snoopFanout::max_value                0                       # Request fanout histogram (Count)
system.membus.snoopFanout::total                  555                       # Request fanout histogram (Count)
system.membus.power_state.pwrStateResidencyTicks::UNDEFINED     29957000                       # Cumulative time (in ticks) in various power states (Tick)
system.membus.reqLayer0.occupancy             4344000                       # Layer occupancy (ticks) (Tick)
system.membus.reqLayer0.utilization               0.1                       # Layer utilization (Ratio)
system.membus.respLayer1.occupancy            2979250                       # Layer occupancy (ticks) (Tick)
system.membus.respLayer1.utilization              0.1                       # Layer utilization (Ratio)
system.membus.snoop_filter.totRequests           1298                       # Total number of requests made to the snoop filter. (Count)
system.membus.snoop_filter.hitSingleRequests          743                       # Number of requests hitting in the snoop filter with a single holder of the requested data. (Count)
system.membus.snoop_filter.hitMultiRequests            0                       # Number of requests hitting in the snoop filter with multiple (>1) holders of the requested data. (Count)
system.membus.snoop_filter.totSnoops                0                       # Total number of snoops made to the snoop filter. (Count)
system.membus.snoop_filter.hitSingleSnoops            0                       # Number of snoops hitting in the snoop filter with a single holder of the requested data. (Count)
system.membus.snoop_filter.hitMultiSnoops            0                       # Number of snoops hitting in the snoop filter with multiple (>1) holders of the requested data. (Count)
system.tol2bus.transDist::ReadResp                559                       # Transaction distribution (Count)
system.tol2bus.transDist::WritebackDirty          858                       # Transaction distribution (Count)
system.tol2bus.transDist::WritebackClean          239                       # Transaction distribution (Count)
system.tol2bus.transDist::CleanEvict              229                       # Transaction distribution (Count)
system.tol2bus.transDist::ReadExReq                24                       # Transaction distribution (Count)
system.tol2bus.transDist::ReadExResp               24                       # Transaction distribution (Count)
system.tol2bus.transDist::ReadCleanReq            240                       # Transaction distribution (Count)
system.tol2bus.transDist::ReadSharedReq           317                       # Transaction distribution (Count)
system.tol2bus.pktCount_system.cpu.icache.mem_side_port::system.l2.cpu_side_port          718                       # Packet count per connected requestor and responder (Count)
system.tol2bus.pktCount_system.cpu.dcache.mem_side_port::system.l2.cpu_side_port         1029                       # Packet count per connected requestor and responder (Count)
system.tol2bus.pktCount::total                   1747                       # Packet count per connected requestor and responder (Count)
system.tol2bus.pktSize_system.cpu.icache.mem_side_port::system.l2.cpu_side_port        30592                       # Cumulative packet size per connected requestor and responder (Byte)
system.tol2bus.pktSize_system.cpu.dcache.mem_side_port::system.l2.cpu_side_port        30144                       # Cumulative packet size per connected requestor and responder (Byte)
system.tol2bus.pktSize::total                   60736                       # Cumulative packet size per connected requestor and responder (Byte)
system.tol2bus.snoops                             743                       # Total snoops (Count)
system.tol2bus.snoopTraffic                     46784                       # Total snoop traffic (Byte)
system.tol2bus.snoopFanout::samples              1324                       # Request fanout histogram (Count)
system.tol2bus.snoopFanout::mean             0.003021                       # Request fanout histogram (Count)
system.tol2bus.snoopFanout::stdev            0.054903                       # Request fanout histogram (Count)
system.tol2bus.snoopFanout::underflows              0      0.00%      0.00% # Request fanout histogram (Count)
system.tol2bus.snoopFanout::0                    1320     99.70%     99.70% # Request fanout histogram (Count)
system.tol2bus.snoopFanout::1                       4      0.30%    100.00% # Request fanout histogram (Count)
system.tol2bus.snoopFanout::2                       0      0.00%    100.00% # Request fanout histogram (Count)
system.tol2bus.snoopFanout::overflows               0      0.00%    100.00% # Request fanout histogram (Count)
system.tol2bus.snoopFanout::min_value               0                       # Request fanout histogram (Count)
system.tol2bus.snoopFanout::max_value               1                       # Request fanout histogram (Count)
system.tol2bus.snoopFanout::total                1324                       # Request fanout histogram (Count)
system.tol2bus.power_state.pwrStateResidencyTicks::UNDEFINED     29957000                       # Cumulative time (in ticks) in various power states (Tick)
system.tol2bus.reqLayer0.occupancy             948000                       # Layer occupancy (ticks) (Tick)
system.tol2bus.reqLayer0.utilization              0.0                       # Layer utilization (Ratio)
system.tol2bus.respLayer0.occupancy            358500                       # Layer occupancy (ticks) (Tick)
system.tol2bus.respLayer0.utilization             0.0                       # Layer utilization (Ratio)
system.tol2bus.respLayer1.occupancy            516000                       # Layer occupancy (ticks) (Tick)
system.tol2bus.respLayer1.utilization             0.0                       # Layer utilization (Ratio)
system.tol2bus.snoop_filter.totRequests          1164                       # Total number of requests made to the snoop filter. (Count)
system.tol2bus.snoop_filter.hitSingleRequests          583                       # Number of requests hitting in the snoop filter with a single holder of the requested data. (Count)
system.tol2bus.snoop_filter.hitMultiRequests            0                       # Number of requests hitting in the snoop filter with multiple (>1) holders of the requested data. (Count)
system.tol2bus.snoop_filter.totSnoops               4                       # Total number of snoops made to the snoop filter. (Count)
system.tol2bus.snoop_filter.hitSingleSnoops            4                       # Number of snoops hitting in the snoop filter with a single holder of the requested data. (Count)
system.tol2bus.snoop_filter.hitMultiSnoops            0                       # Number of snoops hitting in the snoop filter with multiple (>1) holders of the requested data. (Count)
system.voltage_domain.voltage                       1                       # Voltage in Volts (Volt)
system.workload.inst.arm                            0                       # number of arm instructions executed (Count)
system.workload.inst.quiesce                        0                       # number of quiesce instructions executed (Count)

---------- End Simulation Statistics   ----------
