
---------- Begin Simulation Statistics ----------
simSeconds                                   0.000567                       # Number of seconds simulated (Second)
simTicks                                    566504500                       # Number of ticks simulated (Tick)
finalTick                                  1555925500                       # Number of ticks from beginning of simulation (restored from checkpoints and never reset) (Tick)
simFreq                                  1000000000000                       # The number of ticks per simulated second ((Tick/Second))
hostSeconds                                      8.70                       # Real time elapsed on the host (Second)
hostTickRate                                 65120411                       # The number of ticks simulated per host second (ticks/s) ((Tick/Second))
hostMemory                                     680120                       # Number of bytes of host memory used (Byte)
simInsts                                      2945651                       # Number of instructions simulated (Count)
simOps                                        3336573                       # Number of ops (including micro ops) simulated (Count)
hostInstRate                                   338601                       # Simulator instruction rate (inst/s) ((Count/Second))
hostOpRate                                     383536                       # Simulator op (including micro ops) rate (op/s) ((Count/Second))
system.clk_domain.clock                          1000                       # Clock period in ticks (Tick)
system.cpu.numCycles                          1133009                       # Number of cpu cycles simulated (Cycle)
system.cpu.numWorkItemsStarted                      0                       # Number of work items this cpu started (Count)
system.cpu.numWorkItemsCompleted                    0                       # Number of work items this cpu completed (Count)
system.cpu.instsAdded                         1445092                       # Number of instructions added to the IQ (excludes non-spec) (Count)
system.cpu.nonSpecInstsAdded                        2                       # Number of non-speculative instructions added to the IQ (Count)
system.cpu.instsIssued                        3170797                       # Number of instructions issued (Count)
system.cpu.squashedInstsIssued                   5553                       # Number of squashed instructions issued (Count)
system.cpu.squashedInstsExamined                34824                       # Number of squashed instructions iterated over during squash; mainly for profiling (Count)
system.cpu.squashedOperandsExamined             60840                       # Number of squashed operands that are examined and possibly removed from graph (Count)
system.cpu.squashedNonSpecRemoved                   1                       # Number of squashed non-spec instructions that were removed (Count)
system.cpu.numIssuedDist::samples             1125684                       # Number of insts issued each cycle (Count)
system.cpu.numIssuedDist::mean               2.816774                       # Number of insts issued each cycle (Count)
system.cpu.numIssuedDist::stdev              2.226140                       # Number of insts issued each cycle (Count)
system.cpu.numIssuedDist::underflows                0      0.00%      0.00% # Number of insts issued each cycle (Count)
system.cpu.numIssuedDist::0                    279209     24.80%     24.80% # Number of insts issued each cycle (Count)
system.cpu.numIssuedDist::1                    141275     12.55%     37.35% # Number of insts issued each cycle (Count)
system.cpu.numIssuedDist::2                     96297      8.55%     45.91% # Number of insts issued each cycle (Count)
system.cpu.numIssuedDist::3                     81784      7.27%     53.17% # Number of insts issued each cycle (Count)
system.cpu.numIssuedDist::4                    213967     19.01%     72.18% # Number of insts issued each cycle (Count)
system.cpu.numIssuedDist::5                    194375     17.27%     89.45% # Number of insts issued each cycle (Count)
system.cpu.numIssuedDist::6                     79308      7.05%     96.49% # Number of insts issued each cycle (Count)
system.cpu.numIssuedDist::7                     27767      2.47%     98.96% # Number of insts issued each cycle (Count)
system.cpu.numIssuedDist::8                     11702      1.04%    100.00% # Number of insts issued each cycle (Count)
system.cpu.numIssuedDist::overflows                 0      0.00%    100.00% # Number of insts issued each cycle (Count)
system.cpu.numIssuedDist::min_value                 0                       # Number of insts issued each cycle (Count)
system.cpu.numIssuedDist::max_value                 8                       # Number of insts issued each cycle (Count)
system.cpu.numIssuedDist::total               1125684                       # Number of insts issued each cycle (Count)
system.cpu.statFuBusy::No_OpClass                   0      0.00%      0.00% # attempts to use FU when none available (Count)
system.cpu.statFuBusy::IntAlu                       1      0.00%      0.00% # attempts to use FU when none available (Count)
system.cpu.statFuBusy::IntMult                      1      0.00%      0.00% # attempts to use FU when none available (Count)
system.cpu.statFuBusy::IntDiv                       0      0.00%      0.00% # attempts to use FU when none available (Count)
system.cpu.statFuBusy::FloatAdd                     0      0.00%      0.00% # attempts to use FU when none available (Count)
system.cpu.statFuBusy::FloatCmp                     0      0.00%      0.00% # attempts to use FU when none available (Count)
system.cpu.statFuBusy::FloatCvt                     0      0.00%      0.00% # attempts to use FU when none available (Count)
system.cpu.statFuBusy::FloatMult                    0      0.00%      0.00% # attempts to use FU when none available (Count)
system.cpu.statFuBusy::FloatMultAcc                 0      0.00%      0.00% # attempts to use FU when none available (Count)
system.cpu.statFuBusy::FloatDiv                     0      0.00%      0.00% # attempts to use FU when none available (Count)
system.cpu.statFuBusy::FloatMisc                    0      0.00%      0.00% # attempts to use FU when none available (Count)
system.cpu.statFuBusy::FloatSqrt                    0      0.00%      0.00% # attempts to use FU when none available (Count)
system.cpu.statFuBusy::SimdAdd                     65      0.02%      0.02% # attempts to use FU when none available (Count)
system.cpu.statFuBusy::SimdAddAcc                   0      0.00%      0.02% # attempts to use FU when none available (Count)
system.cpu.statFuBusy::SimdAlu                      0      0.00%      0.02% # attempts to use FU when none available (Count)
system.cpu.statFuBusy::SimdCmp                      0      0.00%      0.02% # attempts to use FU when none available (Count)
system.cpu.statFuBusy::SimdCvt                      0      0.00%      0.02% # attempts to use FU when none available (Count)
system.cpu.statFuBusy::SimdMisc                    94      0.02%      0.04% # attempts to use FU when none available (Count)
system.cpu.statFuBusy::SimdMult                  1013      0.25%      0.30% # attempts to use FU when none available (Count)
system.cpu.statFuBusy::SimdMultAcc                  0      0.00%      0.30% # attempts to use FU when none available (Count)
system.cpu.statFuBusy::SimdShift                    0      0.00%      0.30% # attempts to use FU when none available (Count)
system.cpu.statFuBusy::SimdShiftAcc                 0      0.00%      0.30% # attempts to use FU when none available (Count)
system.cpu.statFuBusy::SimdDiv                      0      0.00%      0.30% # attempts to use FU when none available (Count)
system.cpu.statFuBusy::SimdSqrt                     0      0.00%      0.30% # attempts to use FU when none available (Count)
system.cpu.statFuBusy::SimdFloatAdd                 0      0.00%      0.30% # attempts to use FU when none available (Count)
system.cpu.statFuBusy::SimdFloatAlu                 0      0.00%      0.30% # attempts to use FU when none available (Count)
system.cpu.statFuBusy::SimdFloatCmp                 0      0.00%      0.30% # attempts to use FU when none available (Count)
system.cpu.statFuBusy::SimdFloatCvt                 0      0.00%      0.30% # attempts to use FU when none available (Count)
system.cpu.statFuBusy::SimdFloatDiv                 0      0.00%      0.30% # attempts to use FU when none available (Count)
system.cpu.statFuBusy::SimdFloatMisc                0      0.00%      0.30% # attempts to use FU when none available (Count)
system.cpu.statFuBusy::SimdFloatMult                0      0.00%      0.30% # attempts to use FU when none available (Count)
system.cpu.statFuBusy::SimdFloatMultAcc             0      0.00%      0.30% # attempts to use FU when none available (Count)
system.cpu.statFuBusy::SimdFloatSqrt                0      0.00%      0.30% # attempts to use FU when none available (Count)
system.cpu.statFuBusy::SimdReduceAdd                0      0.00%      0.30% # attempts to use FU when none available (Count)
system.cpu.statFuBusy::SimdReduceAlu                0      0.00%      0.30% # attempts to use FU when none available (Count)
system.cpu.statFuBusy::SimdReduceCmp                0      0.00%      0.30% # attempts to use FU when none available (Count)
system.cpu.statFuBusy::SimdFloatReduceAdd            0      0.00%      0.30% # attempts to use FU when none available (Count)
system.cpu.statFuBusy::SimdFloatReduceCmp            0      0.00%      0.30% # attempts to use FU when none available (Count)
system.cpu.statFuBusy::SimdAes                      0      0.00%      0.30% # attempts to use FU when none available (Count)
system.cpu.statFuBusy::SimdAesMix                   0      0.00%      0.30% # attempts to use FU when none available (Count)
system.cpu.statFuBusy::SimdSha1Hash                 0      0.00%      0.30% # attempts to use FU when none available (Count)
system.cpu.statFuBusy::SimdSha1Hash2                0      0.00%      0.30% # attempts to use FU when none available (Count)
system.cpu.statFuBusy::SimdSha256Hash               0      0.00%      0.30% # attempts to use FU when none available (Count)
system.cpu.statFuBusy::SimdSha256Hash2              0      0.00%      0.30% # attempts to use FU when none available (Count)
system.cpu.statFuBusy::SimdShaSigma2                0      0.00%      0.30% # attempts to use FU when none available (Count)
system.cpu.statFuBusy::SimdShaSigma3                0      0.00%      0.30% # attempts to use FU when none available (Count)
system.cpu.statFuBusy::SimdPredAlu                  0      0.00%      0.30% # attempts to use FU when none available (Count)
system.cpu.statFuBusy::MemRead                 395804     99.59%     99.88% # attempts to use FU when none available (Count)
system.cpu.statFuBusy::MemWrite                   464      0.12%    100.00% # attempts to use FU when none available (Count)
system.cpu.statFuBusy::FloatMemRead                 0      0.00%    100.00% # attempts to use FU when none available (Count)
system.cpu.statFuBusy::FloatMemWrite                0      0.00%    100.00% # attempts to use FU when none available (Count)
system.cpu.statFuBusy::IprAccess                    0      0.00%    100.00% # attempts to use FU when none available (Count)
system.cpu.statFuBusy::InstPrefetch                 0      0.00%    100.00% # attempts to use FU when none available (Count)
system.cpu.statIssuedInstType_0::No_OpClass            0      0.00%      0.00% # Number of instructions issued per FU type, per thread (Count)
system.cpu.statIssuedInstType_0::IntAlu        673600     21.24%     21.24% # Number of instructions issued per FU type, per thread (Count)
system.cpu.statIssuedInstType_0::IntMult           91      0.00%     21.25% # Number of instructions issued per FU type, per thread (Count)
system.cpu.statIssuedInstType_0::IntDiv             0      0.00%     21.25% # Number of instructions issued per FU type, per thread (Count)
system.cpu.statIssuedInstType_0::FloatAdd            0      0.00%     21.25% # Number of instructions issued per FU type, per thread (Count)
system.cpu.statIssuedInstType_0::FloatCmp            0      0.00%     21.25% # Number of instructions issued per FU type, per thread (Count)
system.cpu.statIssuedInstType_0::FloatCvt            0      0.00%     21.25% # Number of instructions issued per FU type, per thread (Count)
system.cpu.statIssuedInstType_0::FloatMult            0      0.00%     21.25% # Number of instructions issued per FU type, per thread (Count)
system.cpu.statIssuedInstType_0::FloatMultAcc            0      0.00%     21.25% # Number of instructions issued per FU type, per thread (Count)
system.cpu.statIssuedInstType_0::FloatDiv            0      0.00%     21.25% # Number of instructions issued per FU type, per thread (Count)
system.cpu.statIssuedInstType_0::FloatMisc            0      0.00%     21.25% # Number of instructions issued per FU type, per thread (Count)
system.cpu.statIssuedInstType_0::FloatSqrt            0      0.00%     21.25% # Number of instructions issued per FU type, per thread (Count)
system.cpu.statIssuedInstType_0::SimdAdd       123507      3.90%     25.14% # Number of instructions issued per FU type, per thread (Count)
system.cpu.statIssuedInstType_0::SimdAddAcc            0      0.00%     25.14% # Number of instructions issued per FU type, per thread (Count)
system.cpu.statIssuedInstType_0::SimdAlu            0      0.00%     25.14% # Number of instructions issued per FU type, per thread (Count)
system.cpu.statIssuedInstType_0::SimdCmp            0      0.00%     25.14% # Number of instructions issued per FU type, per thread (Count)
system.cpu.statIssuedInstType_0::SimdCvt            0      0.00%     25.14% # Number of instructions issued per FU type, per thread (Count)
system.cpu.statIssuedInstType_0::SimdMisc       123504      3.90%     29.04% # Number of instructions issued per FU type, per thread (Count)
system.cpu.statIssuedInstType_0::SimdMult       123518      3.90%     32.93% # Number of instructions issued per FU type, per thread (Count)
system.cpu.statIssuedInstType_0::SimdMultAcc            0      0.00%     32.93% # Number of instructions issued per FU type, per thread (Count)
system.cpu.statIssuedInstType_0::SimdShift            0      0.00%     32.93% # Number of instructions issued per FU type, per thread (Count)
system.cpu.statIssuedInstType_0::SimdShiftAcc            0      0.00%     32.93% # Number of instructions issued per FU type, per thread (Count)
system.cpu.statIssuedInstType_0::SimdDiv            0      0.00%     32.93% # Number of instructions issued per FU type, per thread (Count)
system.cpu.statIssuedInstType_0::SimdSqrt            0      0.00%     32.93% # Number of instructions issued per FU type, per thread (Count)
system.cpu.statIssuedInstType_0::SimdFloatAdd            0      0.00%     32.93% # Number of instructions issued per FU type, per thread (Count)
system.cpu.statIssuedInstType_0::SimdFloatAlu            0      0.00%     32.93% # Number of instructions issued per FU type, per thread (Count)
system.cpu.statIssuedInstType_0::SimdFloatCmp            0      0.00%     32.93% # Number of instructions issued per FU type, per thread (Count)
system.cpu.statIssuedInstType_0::SimdFloatCvt            0      0.00%     32.93% # Number of instructions issued per FU type, per thread (Count)
system.cpu.statIssuedInstType_0::SimdFloatDiv            0      0.00%     32.93% # Number of instructions issued per FU type, per thread (Count)
system.cpu.statIssuedInstType_0::SimdFloatMisc            0      0.00%     32.93% # Number of instructions issued per FU type, per thread (Count)
system.cpu.statIssuedInstType_0::SimdFloatMult            0      0.00%     32.93% # Number of instructions issued per FU type, per thread (Count)
system.cpu.statIssuedInstType_0::SimdFloatMultAcc            0      0.00%     32.93% # Number of instructions issued per FU type, per thread (Count)
system.cpu.statIssuedInstType_0::SimdFloatSqrt            0      0.00%     32.93% # Number of instructions issued per FU type, per thread (Count)
system.cpu.statIssuedInstType_0::SimdReduceAdd            0      0.00%     32.93% # Number of instructions issued per FU type, per thread (Count)
system.cpu.statIssuedInstType_0::SimdReduceAlu            0      0.00%     32.93% # Number of instructions issued per FU type, per thread (Count)
system.cpu.statIssuedInstType_0::SimdReduceCmp            0      0.00%     32.93% # Number of instructions issued per FU type, per thread (Count)
system.cpu.statIssuedInstType_0::SimdFloatReduceAdd            0      0.00%     32.93% # Number of instructions issued per FU type, per thread (Count)
system.cpu.statIssuedInstType_0::SimdFloatReduceCmp            0      0.00%     32.93% # Number of instructions issued per FU type, per thread (Count)
system.cpu.statIssuedInstType_0::SimdAes            0      0.00%     32.93% # Number of instructions issued per FU type, per thread (Count)
system.cpu.statIssuedInstType_0::SimdAesMix            0      0.00%     32.93% # Number of instructions issued per FU type, per thread (Count)
system.cpu.statIssuedInstType_0::SimdSha1Hash            0      0.00%     32.93% # Number of instructions issued per FU type, per thread (Count)
system.cpu.statIssuedInstType_0::SimdSha1Hash2            0      0.00%     32.93% # Number of instructions issued per FU type, per thread (Count)
system.cpu.statIssuedInstType_0::SimdSha256Hash            0      0.00%     32.93% # Number of instructions issued per FU type, per thread (Count)
system.cpu.statIssuedInstType_0::SimdSha256Hash2            0      0.00%     32.93% # Number of instructions issued per FU type, per thread (Count)
system.cpu.statIssuedInstType_0::SimdShaSigma2            0      0.00%     32.93% # Number of instructions issued per FU type, per thread (Count)
system.cpu.statIssuedInstType_0::SimdShaSigma3            0      0.00%     32.93% # Number of instructions issued per FU type, per thread (Count)
system.cpu.statIssuedInstType_0::SimdPredAlu            0      0.00%     32.93% # Number of instructions issued per FU type, per thread (Count)
system.cpu.statIssuedInstType_0::MemRead      1999358     63.06%     95.99% # Number of instructions issued per FU type, per thread (Count)
system.cpu.statIssuedInstType_0::MemWrite       127219      4.01%    100.00% # Number of instructions issued per FU type, per thread (Count)
system.cpu.statIssuedInstType_0::FloatMemRead            0      0.00%    100.00% # Number of instructions issued per FU type, per thread (Count)
system.cpu.statIssuedInstType_0::FloatMemWrite            0      0.00%    100.00% # Number of instructions issued per FU type, per thread (Count)
system.cpu.statIssuedInstType_0::IprAccess            0      0.00%    100.00% # Number of instructions issued per FU type, per thread (Count)
system.cpu.statIssuedInstType_0::InstPrefetch            0      0.00%    100.00% # Number of instructions issued per FU type, per thread (Count)
system.cpu.statIssuedInstType_0::total        3170797                       # Number of instructions issued per FU type, per thread (Count)
system.cpu.issueRate                         2.798563                       # Inst issue rate ((Count/Cycle))
system.cpu.fuBusy                              397442                       # FU busy when requested (Count)
system.cpu.fuBusyRate                        0.125345                       # FU busy rate (busy events/executed inst) ((Count/Count))
system.cpu.intInstQueueReads                  4935033                       # Number of integer instruction queue reads (Count)
system.cpu.intInstQueueWrites                  958122                       # Number of integer instruction queue writes (Count)
system.cpu.intInstQueueWakeupAccesses          926116                       # Number of integer instruction queue wakeup accesses (Count)
system.cpu.fpInstQueueReads                         0                       # Number of floating instruction queue reads (Count)
system.cpu.fpInstQueueWrites                        0                       # Number of floating instruction queue writes (Count)
system.cpu.fpInstQueueWakeupAccesses                0                       # Number of floating instruction queue wakeup accesses (Count)
system.cpu.vecInstQueueReads                  2935234                       # Number of vector instruction queue reads (Count)
system.cpu.vecInstQueueWrites                  521803                       # Number of vector instruction queue writes (Count)
system.cpu.vecInstQueueWakeupAccesses          492618                       # Number of vector instruction queue wakeup accesses (Count)
system.cpu.intAluAccesses                     2006458                       # Number of integer alu accesses (Count)
system.cpu.fpAluAccesses                            0                       # Number of floating point alu accesses (Count)
system.cpu.vecAluAccesses                     1561781                       # Number of vector alu accesses (Count)
system.cpu.numInsts                           3166184                       # Number of executed instructions (Count)
system.cpu.numLoadInsts                       1997433                       # Number of load instructions executed (Count)
system.cpu.numSquashedInsts                      4607                       # Number of squashed instructions skipped in execute (Count)
system.cpu.numSwp                                   0                       # Number of swp insts executed (Count)
system.cpu.numNop                                3850                       # Number of nop insts executed (Count)
system.cpu.numRefs                            2124647                       # Number of memory reference insts executed (Count)
system.cpu.numBranches                         130068                       # Number of branches executed (Count)
system.cpu.numStoreInsts                       127214                       # Number of stores executed (Count)
system.cpu.numRate                           2.794491                       # Inst execution rate ((Count/Cycle))
system.cpu.timesIdled                             103                       # Number of times that the entire CPU went into an idle state and unscheduled itself (Count)
system.cpu.idleCycles                            7325                       # Total number of cycles that the CPU has spent unscheduled due to idling (Cycle)
system.cpu.committedInsts                     1288421                       # Number of Instructions Simulated (Count)
system.cpu.committedOps                       1410267                       # Number of Ops (including micro ops) Simulated (Count)
system.cpu.cpi                               0.879378                       # CPI: Cycles Per Instruction ((Cycle/Count))
system.cpu.totalCpi                          0.879378                       # CPI: Total CPI of All Threads ((Cycle/Count))
system.cpu.ipc                               1.137167                       # IPC: Instructions Per Cycle ((Count/Cycle))
system.cpu.totalIpc                          1.137167                       # IPC: Total IPC of All Threads ((Count/Cycle))
system.cpu.intRegfileReads                    3210298                       # Number of integer regfile reads (Count)
system.cpu.intRegfileWrites                    662462                       # Number of integer regfile writes (Count)
system.cpu.vecRegfileReads                     863165                       # number of vector regfile reads (Count)
system.cpu.ccRegfileReads                      390027                       # number of cc regfile reads (Count)
system.cpu.ccRegfileWrites                     390681                       # number of cc regfile writes (Count)
system.cpu.miscRegfileReads                   2860449                       # number of misc regfile reads (Count)
system.cpu.MemDepUnit__0.insertedLoads         259344                       # Number of loads inserted to the mem dependence unit. (Count)
system.cpu.MemDepUnit__0.insertedStores        129434                       # Number of stores inserted to the mem dependence unit. (Count)
system.cpu.MemDepUnit__0.conflictingLoads           34                       # Number of conflicting loads. (Count)
system.cpu.MemDepUnit__0.conflictingStores         3365                       # Number of conflicting stores. (Count)
system.cpu.MemDepUnit__1.insertedLoads              0                       # Number of loads inserted to the mem dependence unit. (Count)
system.cpu.MemDepUnit__1.insertedStores             0                       # Number of stores inserted to the mem dependence unit. (Count)
system.cpu.MemDepUnit__1.conflictingLoads            0                       # Number of conflicting loads. (Count)
system.cpu.MemDepUnit__1.conflictingStores            0                       # Number of conflicting stores. (Count)
system.cpu.MemDepUnit__2.insertedLoads              0                       # Number of loads inserted to the mem dependence unit. (Count)
system.cpu.MemDepUnit__2.insertedStores             0                       # Number of stores inserted to the mem dependence unit. (Count)
system.cpu.MemDepUnit__2.conflictingLoads            0                       # Number of conflicting loads. (Count)
system.cpu.MemDepUnit__2.conflictingStores            0                       # Number of conflicting stores. (Count)
system.cpu.MemDepUnit__3.insertedLoads              0                       # Number of loads inserted to the mem dependence unit. (Count)
system.cpu.MemDepUnit__3.insertedStores             0                       # Number of stores inserted to the mem dependence unit. (Count)
system.cpu.MemDepUnit__3.conflictingLoads            0                       # Number of conflicting loads. (Count)
system.cpu.MemDepUnit__3.conflictingStores            0                       # Number of conflicting stores. (Count)
system.cpu.branchPred.lookups                  146208                       # Number of BP lookups (Count)
system.cpu.branchPred.condPredicted            146123                       # Number of conditional branches predicted (Count)
system.cpu.branchPred.condIncorrect              4310                       # Number of conditional branches incorrect (Count)
system.cpu.branchPred.BTBLookups               142217                       # Number of BTB lookups (Count)
system.cpu.branchPred.BTBUpdates                   39                       # Number of BTB updates (Count)
system.cpu.branchPred.BTBHits                  142199                       # Number of BTB hits (Count)
system.cpu.branchPred.BTBHitRatio            0.999873                       # BTB Hit Ratio (Ratio)
system.cpu.branchPred.RASUsed                       2                       # Number of times the RAS was used to get a target. (Count)
system.cpu.branchPred.RASIncorrect                  0                       # Number of incorrect RAS predictions. (Count)
system.cpu.branchPred.indirectLookups              48                       # Number of indirect predictor lookups. (Count)
system.cpu.branchPred.indirectHits                  0                       # Number of indirect target hits. (Count)
system.cpu.branchPred.indirectMisses               48                       # Number of indirect misses. (Count)
system.cpu.branchPred.indirectMispredicted            2                       # Number of mispredicted indirect branches. (Count)
system.cpu.commit.commitSquashedInsts           34024                       # The number of squashed insts skipped by commit (Count)
system.cpu.commit.commitNonSpecStalls               1                       # The number of times commit has been forced to stall to communicate backwards (Count)
system.cpu.commit.branchMispredicts              4306                       # The number of times a branch was mispredicted (Count)
system.cpu.commit.numCommittedDist::samples      1119059                       # Number of insts commited each cycle (Count)
system.cpu.commit.numCommittedDist::mean     1.263607                       # Number of insts commited each cycle (Count)
system.cpu.commit.numCommittedDist::stdev     2.393977                       # Number of insts commited each cycle (Count)
system.cpu.commit.numCommittedDist::underflows            0      0.00%      0.00% # Number of insts commited each cycle (Count)
system.cpu.commit.numCommittedDist::0          775124     69.27%     69.27% # Number of insts commited each cycle (Count)
system.cpu.commit.numCommittedDist::1          110544      9.88%     79.14% # Number of insts commited each cycle (Count)
system.cpu.commit.numCommittedDist::2            9867      0.88%     80.03% # Number of insts commited each cycle (Count)
system.cpu.commit.numCommittedDist::3            5126      0.46%     80.48% # Number of insts commited each cycle (Count)
system.cpu.commit.numCommittedDist::4           91226      8.15%     88.64% # Number of insts commited each cycle (Count)
system.cpu.commit.numCommittedDist::5            1397      0.12%     88.76% # Number of insts commited each cycle (Count)
system.cpu.commit.numCommittedDist::6           52695      4.71%     93.47% # Number of insts commited each cycle (Count)
system.cpu.commit.numCommittedDist::7            4304      0.38%     93.85% # Number of insts commited each cycle (Count)
system.cpu.commit.numCommittedDist::8           68776      6.15%    100.00% # Number of insts commited each cycle (Count)
system.cpu.commit.numCommittedDist::overflows            0      0.00%    100.00% # Number of insts commited each cycle (Count)
system.cpu.commit.numCommittedDist::min_value            0                       # Number of insts commited each cycle (Count)
system.cpu.commit.numCommittedDist::max_value            8                       # Number of insts commited each cycle (Count)
system.cpu.commit.numCommittedDist::total      1119059                       # Number of insts commited each cycle (Count)
system.cpu.commit.instsCommitted              1292205                       # Number of instructions committed (Count)
system.cpu.commit.opsCommitted                1414051                       # Number of ops (including micro ops) committed (Count)
system.cpu.commit.memRefs                      376831                       # Number of memory references committed (Count)
system.cpu.commit.loads                        249659                       # Number of loads committed (Count)
system.cpu.commit.amos                              0                       # Number of atomic instructions committed (Count)
system.cpu.commit.membars                           0                       # Number of memory barriers committed (Count)
system.cpu.commit.branches                     129179                       # Number of branches committed (Count)
system.cpu.commit.vectorInstructions           491387                       # Number of committed Vector instructions. (Count)
system.cpu.commit.floating                          0                       # Number of committed floating point instructions. (Count)
system.cpu.commit.integer                     1034738                       # Number of committed integer instructions. (Count)
system.cpu.commit.functionCalls                     1                       # Number of function calls committed. (Count)
system.cpu.commit.committedInstType_0::No_OpClass            0      0.00%      0.00% # Class of committed instruction (Count)
system.cpu.commit.committedInstType_0::IntAlu       667574     47.21%     47.21% # Class of committed instruction (Count)
system.cpu.commit.committedInstType_0::IntMult           70      0.00%     47.21% # Class of committed instruction (Count)
system.cpu.commit.committedInstType_0::IntDiv            0      0.00%     47.21% # Class of committed instruction (Count)
system.cpu.commit.committedInstType_0::FloatAdd            0      0.00%     47.21% # Class of committed instruction (Count)
system.cpu.commit.committedInstType_0::FloatCmp            0      0.00%     47.21% # Class of committed instruction (Count)
system.cpu.commit.committedInstType_0::FloatCvt            0      0.00%     47.21% # Class of committed instruction (Count)
system.cpu.commit.committedInstType_0::FloatMult            0      0.00%     47.21% # Class of committed instruction (Count)
system.cpu.commit.committedInstType_0::FloatMultAcc            0      0.00%     47.21% # Class of committed instruction (Count)
system.cpu.commit.committedInstType_0::FloatDiv            0      0.00%     47.21% # Class of committed instruction (Count)
system.cpu.commit.committedInstType_0::FloatMisc            0      0.00%     47.21% # Class of committed instruction (Count)
system.cpu.commit.committedInstType_0::FloatSqrt            0      0.00%     47.21% # Class of committed instruction (Count)
system.cpu.commit.committedInstType_0::SimdAdd       123192      8.71%     55.93% # Class of committed instruction (Count)
system.cpu.commit.committedInstType_0::SimdAddAcc            0      0.00%     55.93% # Class of committed instruction (Count)
system.cpu.commit.committedInstType_0::SimdAlu            0      0.00%     55.93% # Class of committed instruction (Count)
system.cpu.commit.committedInstType_0::SimdCmp            0      0.00%     55.93% # Class of committed instruction (Count)
system.cpu.commit.committedInstType_0::SimdCvt            0      0.00%     55.93% # Class of committed instruction (Count)
system.cpu.commit.committedInstType_0::SimdMisc       123192      8.71%     64.64% # Class of committed instruction (Count)
system.cpu.commit.committedInstType_0::SimdMult       123192      8.71%     73.35% # Class of committed instruction (Count)
system.cpu.commit.committedInstType_0::SimdMultAcc            0      0.00%     73.35% # Class of committed instruction (Count)
system.cpu.commit.committedInstType_0::SimdShift            0      0.00%     73.35% # Class of committed instruction (Count)
system.cpu.commit.committedInstType_0::SimdShiftAcc            0      0.00%     73.35% # Class of committed instruction (Count)
system.cpu.commit.committedInstType_0::SimdDiv            0      0.00%     73.35% # Class of committed instruction (Count)
system.cpu.commit.committedInstType_0::SimdSqrt            0      0.00%     73.35% # Class of committed instruction (Count)
system.cpu.commit.committedInstType_0::SimdFloatAdd            0      0.00%     73.35% # Class of committed instruction (Count)
system.cpu.commit.committedInstType_0::SimdFloatAlu            0      0.00%     73.35% # Class of committed instruction (Count)
system.cpu.commit.committedInstType_0::SimdFloatCmp            0      0.00%     73.35% # Class of committed instruction (Count)
system.cpu.commit.committedInstType_0::SimdFloatCvt            0      0.00%     73.35% # Class of committed instruction (Count)
system.cpu.commit.committedInstType_0::SimdFloatDiv            0      0.00%     73.35% # Class of committed instruction (Count)
system.cpu.commit.committedInstType_0::SimdFloatMisc            0      0.00%     73.35% # Class of committed instruction (Count)
system.cpu.commit.committedInstType_0::SimdFloatMult            0      0.00%     73.35% # Class of committed instruction (Count)
system.cpu.commit.committedInstType_0::SimdFloatMultAcc            0      0.00%     73.35% # Class of committed instruction (Count)
system.cpu.commit.committedInstType_0::SimdFloatSqrt            0      0.00%     73.35% # Class of committed instruction (Count)
system.cpu.commit.committedInstType_0::SimdReduceAdd            0      0.00%     73.35% # Class of committed instruction (Count)
system.cpu.commit.committedInstType_0::SimdReduceAlu            0      0.00%     73.35% # Class of committed instruction (Count)
system.cpu.commit.committedInstType_0::SimdReduceCmp            0      0.00%     73.35% # Class of committed instruction (Count)
system.cpu.commit.committedInstType_0::SimdFloatReduceAdd            0      0.00%     73.35% # Class of committed instruction (Count)
system.cpu.commit.committedInstType_0::SimdFloatReduceCmp            0      0.00%     73.35% # Class of committed instruction (Count)
system.cpu.commit.committedInstType_0::SimdAes            0      0.00%     73.35% # Class of committed instruction (Count)
system.cpu.commit.committedInstType_0::SimdAesMix            0      0.00%     73.35% # Class of committed instruction (Count)
system.cpu.commit.committedInstType_0::SimdSha1Hash            0      0.00%     73.35% # Class of committed instruction (Count)
system.cpu.commit.committedInstType_0::SimdSha1Hash2            0      0.00%     73.35% # Class of committed instruction (Count)
system.cpu.commit.committedInstType_0::SimdSha256Hash            0      0.00%     73.35% # Class of committed instruction (Count)
system.cpu.commit.committedInstType_0::SimdSha256Hash2            0      0.00%     73.35% # Class of committed instruction (Count)
system.cpu.commit.committedInstType_0::SimdShaSigma2            0      0.00%     73.35% # Class of committed instruction (Count)
system.cpu.commit.committedInstType_0::SimdShaSigma3            0      0.00%     73.35% # Class of committed instruction (Count)
system.cpu.commit.committedInstType_0::SimdPredAlu            0      0.00%     73.35% # Class of committed instruction (Count)
system.cpu.commit.committedInstType_0::MemRead       249659     17.66%     91.01% # Class of committed instruction (Count)
system.cpu.commit.committedInstType_0::MemWrite       127172      8.99%    100.00% # Class of committed instruction (Count)
system.cpu.commit.committedInstType_0::FloatMemRead            0      0.00%    100.00% # Class of committed instruction (Count)
system.cpu.commit.committedInstType_0::FloatMemWrite            0      0.00%    100.00% # Class of committed instruction (Count)
system.cpu.commit.committedInstType_0::IprAccess            0      0.00%    100.00% # Class of committed instruction (Count)
system.cpu.commit.committedInstType_0::InstPrefetch            0      0.00%    100.00% # Class of committed instruction (Count)
system.cpu.commit.committedInstType_0::total      1414051                       # Class of committed instruction (Count)
system.cpu.commit.commitEligibleSamples         68776                       # number cycles where commit BW limit reached (Cycle)
system.cpu.dcache.demandHits::cpu.data         198224                       # number of demand (read+write) hits (Count)
system.cpu.dcache.demandHits::total            198224                       # number of demand (read+write) hits (Count)
system.cpu.dcache.overallHits::cpu.data        198224                       # number of overall hits (Count)
system.cpu.dcache.overallHits::total           198224                       # number of overall hits (Count)
system.cpu.dcache.demandMisses::cpu.data       180021                       # number of demand (read+write) misses (Count)
system.cpu.dcache.demandMisses::total          180021                       # number of demand (read+write) misses (Count)
system.cpu.dcache.overallMisses::cpu.data       180021                       # number of overall misses (Count)
system.cpu.dcache.overallMisses::total         180021                       # number of overall misses (Count)
system.cpu.dcache.demandMissLatency::cpu.data   2475611493                       # number of demand (read+write) miss ticks (Tick)
system.cpu.dcache.demandMissLatency::total   2475611493                       # number of demand (read+write) miss ticks (Tick)
system.cpu.dcache.overallMissLatency::cpu.data   2475611493                       # number of overall miss ticks (Tick)
system.cpu.dcache.overallMissLatency::total   2475611493                       # number of overall miss ticks (Tick)
system.cpu.dcache.demandAccesses::cpu.data       378245                       # number of demand (read+write) accesses (Count)
system.cpu.dcache.demandAccesses::total        378245                       # number of demand (read+write) accesses (Count)
system.cpu.dcache.overallAccesses::cpu.data       378245                       # number of overall (read+write) accesses (Count)
system.cpu.dcache.overallAccesses::total       378245                       # number of overall (read+write) accesses (Count)
system.cpu.dcache.demandMissRate::cpu.data     0.475938                       # miss rate for demand accesses (Ratio)
system.cpu.dcache.demandMissRate::total      0.475938                       # miss rate for demand accesses (Ratio)
system.cpu.dcache.overallMissRate::cpu.data     0.475938                       # miss rate for overall accesses (Ratio)
system.cpu.dcache.overallMissRate::total     0.475938                       # miss rate for overall accesses (Ratio)
system.cpu.dcache.demandAvgMissLatency::cpu.data 13751.792808                       # average overall miss latency in ticks ((Tick/Count))
system.cpu.dcache.demandAvgMissLatency::total 13751.792808                       # average overall miss latency in ticks ((Tick/Count))
system.cpu.dcache.overallAvgMissLatency::cpu.data 13751.792808                       # average overall miss latency ((Tick/Count))
system.cpu.dcache.overallAvgMissLatency::total 13751.792808                       # average overall miss latency ((Tick/Count))
system.cpu.dcache.blockedCycles::no_mshrs       867148                       # number of cycles access was blocked (Cycle)
system.cpu.dcache.blockedCycles::no_targets            0                       # number of cycles access was blocked (Cycle)
system.cpu.dcache.blockedCauses::no_mshrs       155447                       # number of times access was blocked (Count)
system.cpu.dcache.blockedCauses::no_targets            0                       # number of times access was blocked (Count)
system.cpu.dcache.avgBlocked::no_mshrs       5.578416                       # average number of cycles each access was blocked ((Cycle/Count))
system.cpu.dcache.avgBlocked::no_targets          nan                       # average number of cycles each access was blocked ((Cycle/Count))
system.cpu.dcache.writebacks::writebacks       121820                       # number of writebacks (Count)
system.cpu.dcache.writebacks::total            121820                       # number of writebacks (Count)
system.cpu.dcache.demandMshrHits::cpu.data        24029                       # number of demand (read+write) MSHR hits (Count)
system.cpu.dcache.demandMshrHits::total         24029                       # number of demand (read+write) MSHR hits (Count)
system.cpu.dcache.overallMshrHits::cpu.data        24029                       # number of overall MSHR hits (Count)
system.cpu.dcache.overallMshrHits::total        24029                       # number of overall MSHR hits (Count)
system.cpu.dcache.demandMshrMisses::cpu.data       155992                       # number of demand (read+write) MSHR misses (Count)
system.cpu.dcache.demandMshrMisses::total       155992                       # number of demand (read+write) MSHR misses (Count)
system.cpu.dcache.overallMshrMisses::cpu.data       155992                       # number of overall MSHR misses (Count)
system.cpu.dcache.overallMshrMisses::total       155992                       # number of overall MSHR misses (Count)
system.cpu.dcache.demandMshrMissLatency::cpu.data   2121688498                       # number of demand (read+write) MSHR miss ticks (Tick)
system.cpu.dcache.demandMshrMissLatency::total   2121688498                       # number of demand (read+write) MSHR miss ticks (Tick)
system.cpu.dcache.overallMshrMissLatency::cpu.data   2121688498                       # number of overall MSHR miss ticks (Tick)
system.cpu.dcache.overallMshrMissLatency::total   2121688498                       # number of overall MSHR miss ticks (Tick)
system.cpu.dcache.demandMshrMissRate::cpu.data     0.412410                       # mshr miss ratio for demand accesses (Ratio)
system.cpu.dcache.demandMshrMissRate::total     0.412410                       # mshr miss ratio for demand accesses (Ratio)
system.cpu.dcache.overallMshrMissRate::cpu.data     0.412410                       # mshr miss ratio for overall accesses (Ratio)
system.cpu.dcache.overallMshrMissRate::total     0.412410                       # mshr miss ratio for overall accesses (Ratio)
system.cpu.dcache.demandAvgMshrMissLatency::cpu.data 13601.264796                       # average overall mshr miss latency ((Tick/Count))
system.cpu.dcache.demandAvgMshrMissLatency::total 13601.264796                       # average overall mshr miss latency ((Tick/Count))
system.cpu.dcache.overallAvgMshrMissLatency::cpu.data 13601.264796                       # average overall mshr miss latency ((Tick/Count))
system.cpu.dcache.overallAvgMshrMissLatency::total 13601.264796                       # average overall mshr miss latency ((Tick/Count))
system.cpu.dcache.replacements                 155992                       # number of replacements (Count)
system.cpu.dcache.ReadReq.hits::cpu.data        71073                       # number of ReadReq hits (Count)
system.cpu.dcache.ReadReq.hits::total           71073                       # number of ReadReq hits (Count)
system.cpu.dcache.ReadReq.misses::cpu.data       180000                       # number of ReadReq misses (Count)
system.cpu.dcache.ReadReq.misses::total        180000                       # number of ReadReq misses (Count)
system.cpu.dcache.ReadReq.missLatency::cpu.data   2475316500                       # number of ReadReq miss ticks (Tick)
system.cpu.dcache.ReadReq.missLatency::total   2475316500                       # number of ReadReq miss ticks (Tick)
system.cpu.dcache.ReadReq.accesses::cpu.data       251073                       # number of ReadReq accesses(hits+misses) (Count)
system.cpu.dcache.ReadReq.accesses::total       251073                       # number of ReadReq accesses(hits+misses) (Count)
system.cpu.dcache.ReadReq.missRate::cpu.data     0.716923                       # miss rate for ReadReq accesses (Ratio)
system.cpu.dcache.ReadReq.missRate::total     0.716923                       # miss rate for ReadReq accesses (Ratio)
system.cpu.dcache.ReadReq.avgMissLatency::cpu.data 13751.758333                       # average ReadReq miss latency ((Tick/Count))
system.cpu.dcache.ReadReq.avgMissLatency::total 13751.758333                       # average ReadReq miss latency ((Tick/Count))
system.cpu.dcache.ReadReq.mshrHits::cpu.data        24022                       # number of ReadReq MSHR hits (Count)
system.cpu.dcache.ReadReq.mshrHits::total        24022                       # number of ReadReq MSHR hits (Count)
system.cpu.dcache.ReadReq.mshrMisses::cpu.data       155978                       # number of ReadReq MSHR misses (Count)
system.cpu.dcache.ReadReq.mshrMisses::total       155978                       # number of ReadReq MSHR misses (Count)
system.cpu.dcache.ReadReq.mshrMissLatency::cpu.data   2121507000                       # number of ReadReq MSHR miss ticks (Tick)
system.cpu.dcache.ReadReq.mshrMissLatency::total   2121507000                       # number of ReadReq MSHR miss ticks (Tick)
system.cpu.dcache.ReadReq.mshrMissRate::cpu.data     0.621246                       # mshr miss rate for ReadReq accesses (Ratio)
system.cpu.dcache.ReadReq.mshrMissRate::total     0.621246                       # mshr miss rate for ReadReq accesses (Ratio)
system.cpu.dcache.ReadReq.avgMshrMissLatency::cpu.data 13601.321981                       # average ReadReq mshr miss latency ((Tick/Count))
system.cpu.dcache.ReadReq.avgMshrMissLatency::total 13601.321981                       # average ReadReq mshr miss latency ((Tick/Count))
system.cpu.dcache.WriteReq.hits::cpu.data       127151                       # number of WriteReq hits (Count)
system.cpu.dcache.WriteReq.hits::total         127151                       # number of WriteReq hits (Count)
system.cpu.dcache.WriteReq.misses::cpu.data           21                       # number of WriteReq misses (Count)
system.cpu.dcache.WriteReq.misses::total           21                       # number of WriteReq misses (Count)
system.cpu.dcache.WriteReq.missLatency::cpu.data       294993                       # number of WriteReq miss ticks (Tick)
system.cpu.dcache.WriteReq.missLatency::total       294993                       # number of WriteReq miss ticks (Tick)
system.cpu.dcache.WriteReq.accesses::cpu.data       127172                       # number of WriteReq accesses(hits+misses) (Count)
system.cpu.dcache.WriteReq.accesses::total       127172                       # number of WriteReq accesses(hits+misses) (Count)
system.cpu.dcache.WriteReq.missRate::cpu.data     0.000165                       # miss rate for WriteReq accesses (Ratio)
system.cpu.dcache.WriteReq.missRate::total     0.000165                       # miss rate for WriteReq accesses (Ratio)
system.cpu.dcache.WriteReq.avgMissLatency::cpu.data 14047.285714                       # average WriteReq miss latency ((Tick/Count))
system.cpu.dcache.WriteReq.avgMissLatency::total 14047.285714                       # average WriteReq miss latency ((Tick/Count))
system.cpu.dcache.WriteReq.mshrHits::cpu.data            7                       # number of WriteReq MSHR hits (Count)
system.cpu.dcache.WriteReq.mshrHits::total            7                       # number of WriteReq MSHR hits (Count)
system.cpu.dcache.WriteReq.mshrMisses::cpu.data           14                       # number of WriteReq MSHR misses (Count)
system.cpu.dcache.WriteReq.mshrMisses::total           14                       # number of WriteReq MSHR misses (Count)
system.cpu.dcache.WriteReq.mshrMissLatency::cpu.data       181498                       # number of WriteReq MSHR miss ticks (Tick)
system.cpu.dcache.WriteReq.mshrMissLatency::total       181498                       # number of WriteReq MSHR miss ticks (Tick)
system.cpu.dcache.WriteReq.mshrMissRate::cpu.data     0.000110                       # mshr miss rate for WriteReq accesses (Ratio)
system.cpu.dcache.WriteReq.mshrMissRate::total     0.000110                       # mshr miss rate for WriteReq accesses (Ratio)
system.cpu.dcache.WriteReq.avgMshrMissLatency::cpu.data 12964.142857                       # average WriteReq mshr miss latency ((Tick/Count))
system.cpu.dcache.WriteReq.avgMshrMissLatency::total 12964.142857                       # average WriteReq mshr miss latency ((Tick/Count))
system.cpu.dcache.power_state.pwrStateResidencyTicks::UNDEFINED   1555925500                       # Cumulative time (in ticks) in various power states (Tick)
system.cpu.dcache.tags.tagsInUse                 1024                       # Average ticks per tags in use ((Tick/Count))
system.cpu.dcache.tags.totalRefs               403081                       # Total number of references to valid blocks. (Count)
system.cpu.dcache.tags.sampledRefs             155992                       # Sample count of references to valid blocks. (Count)
system.cpu.dcache.tags.avgRefs               2.583985                       # Average number of references to valid blocks. ((Count/Count))
system.cpu.dcache.tags.warmupTick                   0                       # The tick when the warmup percentage was hit. (Tick)
system.cpu.dcache.tags.occupancies::cpu.data         1024                       # Average occupied blocks per tick, per requestor ((Count/Tick))
system.cpu.dcache.tags.avgOccs::cpu.data            1                       # Average percentage of cache occupancy ((Ratio/Tick))
system.cpu.dcache.tags.avgOccs::total               1                       # Average percentage of cache occupancy ((Ratio/Tick))
system.cpu.dcache.tags.occupanciesTaskId::1024         1024                       # Occupied blocks per task id (Count)
system.cpu.dcache.tags.ageTaskId_1024::0          996                       # Occupied blocks per task id, per block age (Count)
system.cpu.dcache.tags.ageTaskId_1024::1           12                       # Occupied blocks per task id, per block age (Count)
system.cpu.dcache.tags.ageTaskId_1024::2           16                       # Occupied blocks per task id, per block age (Count)
system.cpu.dcache.tags.ratioOccsTaskId::1024            1                       # Ratio of occupied blocks and all blocks, per task id (Ratio)
system.cpu.dcache.tags.tagAccesses            1668972                       # Number of tag accesses (Count)
system.cpu.dcache.tags.dataAccesses           1668972                       # Number of data accesses (Count)
system.cpu.dcache.tags.power_state.pwrStateResidencyTicks::UNDEFINED   1555925500                       # Cumulative time (in ticks) in various power states (Tick)
system.cpu.decode.idleCycles                    91135                       # Number of cycles decode is idle (Cycle)
system.cpu.decode.blockedCycles                809102                       # Number of cycles decode is blocked (Cycle)
system.cpu.decode.runCycles                     84057                       # Number of cycles decode is running (Cycle)
system.cpu.decode.unblockCycles                137014                       # Number of cycles decode is unblocking (Cycle)
system.cpu.decode.squashCycles                   4376                       # Number of cycles decode is squashing (Cycle)
system.cpu.decode.branchResolved               129885                       # Number of times decode resolved a branch (Count)
system.cpu.decode.branchMispred                     4                       # Number of times decode detected a branch misprediction (Count)
system.cpu.decode.decodedInsts                1490178                       # Number of instructions handled by decode (Count)
system.cpu.decode.squashedInsts                    16                       # Number of squashed instructions handled by decode (Count)
system.cpu.fetch.icacheStallCycles             263962                       # Number of cycles fetch is stalled on an Icache miss (Cycle)
system.cpu.fetch.insts                        1482499                       # Number of instructions fetch has processed (Count)
system.cpu.fetch.branches                      146208                       # Number of branches that fetch encountered (Count)
system.cpu.fetch.predictedBranches             142201                       # Number of branches that fetch has predicted taken (Count)
system.cpu.fetch.cycles                        857342                       # Number of cycles fetch has run and was not squashing or blocked (Cycle)
system.cpu.fetch.squashCycles                    8760                       # Number of cycles fetch has spent squashing (Cycle)
system.cpu.fetch.cacheLines                    258910                       # Number of cache lines fetched (Count)
system.cpu.fetch.icacheSquashes                  1009                       # Number of outstanding Icache misses that were squashed (Count)
system.cpu.fetch.nisnDist::samples            1125684                       # Number of instructions fetched each cycle (Total) (Count)
system.cpu.fetch.nisnDist::mean              1.442800                       # Number of instructions fetched each cycle (Total) (Count)
system.cpu.fetch.nisnDist::stdev             2.571511                       # Number of instructions fetched each cycle (Total) (Count)
system.cpu.fetch.nisnDist::underflows               0      0.00%      0.00% # Number of instructions fetched each cycle (Total) (Count)
system.cpu.fetch.nisnDist::0                   701484     62.32%     62.32% # Number of instructions fetched each cycle (Total) (Count)
system.cpu.fetch.nisnDist::1                   108788      9.66%     71.98% # Number of instructions fetched each cycle (Total) (Count)
system.cpu.fetch.nisnDist::2                   134836     11.98%     83.96% # Number of instructions fetched each cycle (Total) (Count)
system.cpu.fetch.nisnDist::3                    17966      1.60%     85.55% # Number of instructions fetched each cycle (Total) (Count)
system.cpu.fetch.nisnDist::4                     9943      0.88%     86.44% # Number of instructions fetched each cycle (Total) (Count)
system.cpu.fetch.nisnDist::5                     9655      0.86%     87.30% # Number of instructions fetched each cycle (Total) (Count)
system.cpu.fetch.nisnDist::6                    14738      1.31%     88.60% # Number of instructions fetched each cycle (Total) (Count)
system.cpu.fetch.nisnDist::7                    10888      0.97%     89.57% # Number of instructions fetched each cycle (Total) (Count)
system.cpu.fetch.nisnDist::8                   117386     10.43%    100.00% # Number of instructions fetched each cycle (Total) (Count)
system.cpu.fetch.nisnDist::overflows                0      0.00%    100.00% # Number of instructions fetched each cycle (Total) (Count)
system.cpu.fetch.nisnDist::min_value                0                       # Number of instructions fetched each cycle (Total) (Count)
system.cpu.fetch.nisnDist::max_value                8                       # Number of instructions fetched each cycle (Total) (Count)
system.cpu.fetch.nisnDist::total              1125684                       # Number of instructions fetched each cycle (Total) (Count)
system.cpu.fetch.branchRate                  0.129044                       # Number of branch fetches per cycle (Ratio)
system.cpu.fetch.rate                        1.308462                       # Number of inst fetches per cycle ((Count/Cycle))
system.cpu.icache.demandHits::cpu.inst         258827                       # number of demand (read+write) hits (Count)
system.cpu.icache.demandHits::total            258827                       # number of demand (read+write) hits (Count)
system.cpu.icache.overallHits::cpu.inst        258827                       # number of overall hits (Count)
system.cpu.icache.overallHits::total           258827                       # number of overall hits (Count)
system.cpu.icache.demandMisses::cpu.inst           83                       # number of demand (read+write) misses (Count)
system.cpu.icache.demandMisses::total              83                       # number of demand (read+write) misses (Count)
system.cpu.icache.overallMisses::cpu.inst           83                       # number of overall misses (Count)
system.cpu.icache.overallMisses::total             83                       # number of overall misses (Count)
system.cpu.icache.demandMissLatency::cpu.inst      6145500                       # number of demand (read+write) miss ticks (Tick)
system.cpu.icache.demandMissLatency::total      6145500                       # number of demand (read+write) miss ticks (Tick)
system.cpu.icache.overallMissLatency::cpu.inst      6145500                       # number of overall miss ticks (Tick)
system.cpu.icache.overallMissLatency::total      6145500                       # number of overall miss ticks (Tick)
system.cpu.icache.demandAccesses::cpu.inst       258910                       # number of demand (read+write) accesses (Count)
system.cpu.icache.demandAccesses::total        258910                       # number of demand (read+write) accesses (Count)
system.cpu.icache.overallAccesses::cpu.inst       258910                       # number of overall (read+write) accesses (Count)
system.cpu.icache.overallAccesses::total       258910                       # number of overall (read+write) accesses (Count)
system.cpu.icache.demandMissRate::cpu.inst     0.000321                       # miss rate for demand accesses (Ratio)
system.cpu.icache.demandMissRate::total      0.000321                       # miss rate for demand accesses (Ratio)
system.cpu.icache.overallMissRate::cpu.inst     0.000321                       # miss rate for overall accesses (Ratio)
system.cpu.icache.overallMissRate::total     0.000321                       # miss rate for overall accesses (Ratio)
system.cpu.icache.demandAvgMissLatency::cpu.inst 74042.168675                       # average overall miss latency in ticks ((Tick/Count))
system.cpu.icache.demandAvgMissLatency::total 74042.168675                       # average overall miss latency in ticks ((Tick/Count))
system.cpu.icache.overallAvgMissLatency::cpu.inst 74042.168675                       # average overall miss latency ((Tick/Count))
system.cpu.icache.overallAvgMissLatency::total 74042.168675                       # average overall miss latency ((Tick/Count))
system.cpu.icache.blockedCycles::no_mshrs            0                       # number of cycles access was blocked (Cycle)
system.cpu.icache.blockedCycles::no_targets            0                       # number of cycles access was blocked (Cycle)
system.cpu.icache.blockedCauses::no_mshrs            0                       # number of times access was blocked (Count)
system.cpu.icache.blockedCauses::no_targets            0                       # number of times access was blocked (Count)
system.cpu.icache.avgBlocked::no_mshrs            nan                       # average number of cycles each access was blocked ((Cycle/Count))
system.cpu.icache.avgBlocked::no_targets          nan                       # average number of cycles each access was blocked ((Cycle/Count))
system.cpu.icache.writebacks::writebacks           78                       # number of writebacks (Count)
system.cpu.icache.writebacks::total                78                       # number of writebacks (Count)
system.cpu.icache.demandMshrHits::cpu.inst            6                       # number of demand (read+write) MSHR hits (Count)
system.cpu.icache.demandMshrHits::total             6                       # number of demand (read+write) MSHR hits (Count)
system.cpu.icache.overallMshrHits::cpu.inst            6                       # number of overall MSHR hits (Count)
system.cpu.icache.overallMshrHits::total            6                       # number of overall MSHR hits (Count)
system.cpu.icache.demandMshrMisses::cpu.inst           77                       # number of demand (read+write) MSHR misses (Count)
system.cpu.icache.demandMshrMisses::total           77                       # number of demand (read+write) MSHR misses (Count)
system.cpu.icache.overallMshrMisses::cpu.inst           77                       # number of overall MSHR misses (Count)
system.cpu.icache.overallMshrMisses::total           77                       # number of overall MSHR misses (Count)
system.cpu.icache.demandMshrMissLatency::cpu.inst      5747000                       # number of demand (read+write) MSHR miss ticks (Tick)
system.cpu.icache.demandMshrMissLatency::total      5747000                       # number of demand (read+write) MSHR miss ticks (Tick)
system.cpu.icache.overallMshrMissLatency::cpu.inst      5747000                       # number of overall MSHR miss ticks (Tick)
system.cpu.icache.overallMshrMissLatency::total      5747000                       # number of overall MSHR miss ticks (Tick)
system.cpu.icache.demandMshrMissRate::cpu.inst     0.000297                       # mshr miss ratio for demand accesses (Ratio)
system.cpu.icache.demandMshrMissRate::total     0.000297                       # mshr miss ratio for demand accesses (Ratio)
system.cpu.icache.overallMshrMissRate::cpu.inst     0.000297                       # mshr miss ratio for overall accesses (Ratio)
system.cpu.icache.overallMshrMissRate::total     0.000297                       # mshr miss ratio for overall accesses (Ratio)
system.cpu.icache.demandAvgMshrMissLatency::cpu.inst 74636.363636                       # average overall mshr miss latency ((Tick/Count))
system.cpu.icache.demandAvgMshrMissLatency::total 74636.363636                       # average overall mshr miss latency ((Tick/Count))
system.cpu.icache.overallAvgMshrMissLatency::cpu.inst 74636.363636                       # average overall mshr miss latency ((Tick/Count))
system.cpu.icache.overallAvgMshrMissLatency::total 74636.363636                       # average overall mshr miss latency ((Tick/Count))
system.cpu.icache.replacements                     78                       # number of replacements (Count)
system.cpu.icache.ReadReq.hits::cpu.inst       258827                       # number of ReadReq hits (Count)
system.cpu.icache.ReadReq.hits::total          258827                       # number of ReadReq hits (Count)
system.cpu.icache.ReadReq.misses::cpu.inst           83                       # number of ReadReq misses (Count)
system.cpu.icache.ReadReq.misses::total            83                       # number of ReadReq misses (Count)
system.cpu.icache.ReadReq.missLatency::cpu.inst      6145500                       # number of ReadReq miss ticks (Tick)
system.cpu.icache.ReadReq.missLatency::total      6145500                       # number of ReadReq miss ticks (Tick)
system.cpu.icache.ReadReq.accesses::cpu.inst       258910                       # number of ReadReq accesses(hits+misses) (Count)
system.cpu.icache.ReadReq.accesses::total       258910                       # number of ReadReq accesses(hits+misses) (Count)
system.cpu.icache.ReadReq.missRate::cpu.inst     0.000321                       # miss rate for ReadReq accesses (Ratio)
system.cpu.icache.ReadReq.missRate::total     0.000321                       # miss rate for ReadReq accesses (Ratio)
system.cpu.icache.ReadReq.avgMissLatency::cpu.inst 74042.168675                       # average ReadReq miss latency ((Tick/Count))
system.cpu.icache.ReadReq.avgMissLatency::total 74042.168675                       # average ReadReq miss latency ((Tick/Count))
system.cpu.icache.ReadReq.mshrHits::cpu.inst            6                       # number of ReadReq MSHR hits (Count)
system.cpu.icache.ReadReq.mshrHits::total            6                       # number of ReadReq MSHR hits (Count)
system.cpu.icache.ReadReq.mshrMisses::cpu.inst           77                       # number of ReadReq MSHR misses (Count)
system.cpu.icache.ReadReq.mshrMisses::total           77                       # number of ReadReq MSHR misses (Count)
system.cpu.icache.ReadReq.mshrMissLatency::cpu.inst      5747000                       # number of ReadReq MSHR miss ticks (Tick)
system.cpu.icache.ReadReq.mshrMissLatency::total      5747000                       # number of ReadReq MSHR miss ticks (Tick)
system.cpu.icache.ReadReq.mshrMissRate::cpu.inst     0.000297                       # mshr miss rate for ReadReq accesses (Ratio)
system.cpu.icache.ReadReq.mshrMissRate::total     0.000297                       # mshr miss rate for ReadReq accesses (Ratio)
system.cpu.icache.ReadReq.avgMshrMissLatency::cpu.inst 74636.363636                       # average ReadReq mshr miss latency ((Tick/Count))
system.cpu.icache.ReadReq.avgMshrMissLatency::total 74636.363636                       # average ReadReq mshr miss latency ((Tick/Count))
system.cpu.icache.power_state.pwrStateResidencyTicks::UNDEFINED   1555925500                       # Cumulative time (in ticks) in various power states (Tick)
system.cpu.icache.tags.tagsInUse                  256                       # Average ticks per tags in use ((Tick/Count))
system.cpu.icache.tags.totalRefs                 6597                       # Total number of references to valid blocks. (Count)
system.cpu.icache.tags.sampledRefs                 78                       # Sample count of references to valid blocks. (Count)
system.cpu.icache.tags.avgRefs              84.576923                       # Average number of references to valid blocks. ((Count/Count))
system.cpu.icache.tags.warmupTick                   0                       # The tick when the warmup percentage was hit. (Tick)
system.cpu.icache.tags.occupancies::cpu.inst          256                       # Average occupied blocks per tick, per requestor ((Count/Tick))
system.cpu.icache.tags.avgOccs::cpu.inst            1                       # Average percentage of cache occupancy ((Ratio/Tick))
system.cpu.icache.tags.avgOccs::total               1                       # Average percentage of cache occupancy ((Ratio/Tick))
system.cpu.icache.tags.occupanciesTaskId::1024          256                       # Occupied blocks per task id (Count)
system.cpu.icache.tags.ageTaskId_1024::2          240                       # Occupied blocks per task id, per block age (Count)
system.cpu.icache.tags.ageTaskId_1024::3           16                       # Occupied blocks per task id, per block age (Count)
system.cpu.icache.tags.ratioOccsTaskId::1024            1                       # Ratio of occupied blocks and all blocks, per task id (Ratio)
system.cpu.icache.tags.tagAccesses            1035718                       # Number of tag accesses (Count)
system.cpu.icache.tags.dataAccesses           1035718                       # Number of data accesses (Count)
system.cpu.icache.tags.power_state.pwrStateResidencyTicks::UNDEFINED   1555925500                       # Cumulative time (in ticks) in various power states (Tick)
system.cpu.iew.idleCycles                           0                       # Number of cycles IEW is idle (Cycle)
system.cpu.iew.squashCycles                      4376                       # Number of cycles IEW is squashing (Cycle)
system.cpu.iew.blockCycles                     166179                       # Number of cycles IEW is blocking (Cycle)
system.cpu.iew.unblockCycles                    27324                       # Number of cycles IEW is unblocking (Cycle)
system.cpu.iew.dispatchedInsts                1448944                       # Number of instructions dispatched to IQ (Count)
system.cpu.iew.dispSquashedInsts                 3916                       # Number of squashed instructions skipped by dispatch (Count)
system.cpu.iew.dispLoadInsts                   259344                       # Number of dispatched load instructions (Count)
system.cpu.iew.dispStoreInsts                  129434                       # Number of dispatched store instructions (Count)
system.cpu.iew.dispNonSpecInsts                     2                       # Number of dispatched non-speculative instructions (Count)
system.cpu.iew.iqFullEvents                     16293                       # Number of times the IQ has become full, causing a stall (Count)
system.cpu.iew.lsqFullEvents                     1176                       # Number of times the LSQ has become full, causing a stall (Count)
system.cpu.iew.memOrderViolationEvents              7                       # Number of memory order violations (Count)
system.cpu.iew.predictedTakenIncorrect           4269                       # Number of branches that were predicted taken incorrectly (Count)
system.cpu.iew.predictedNotTakenIncorrect           46                       # Number of branches that were predicted not taken incorrectly (Count)
system.cpu.iew.branchMispredicts                 4315                       # Number of branch mispredicts detected at execute (Count)
system.cpu.iew.instsToCommit                  1419444                       # Cumulative count of insts sent to commit (Count)
system.cpu.iew.writebackCount                 1418734                       # Cumulative count of insts written-back (Count)
system.cpu.iew.producerInst                    898119                       # Number of instructions producing a value (Count)
system.cpu.iew.consumerInst                   1134619                       # Number of instructions consuming a value (Count)
system.cpu.iew.wbRate                        1.252182                       # Insts written-back per cycle ((Count/Cycle))
system.cpu.iew.wbFanout                      0.791560                       # Average fanout of values written-back ((Count/Count))
system.cpu.lsq0.forwLoads                          15                       # Number of loads that had data forwarded from stores (Count)
system.cpu.lsq0.squashedLoads                    9680                       # Number of loads squashed (Count)
system.cpu.lsq0.ignoredResponses                    0                       # Number of memory responses ignored because the instruction is squashed (Count)
system.cpu.lsq0.memOrderViolation                   7                       # Number of memory ordering violations (Count)
system.cpu.lsq0.squashedStores                   2263                       # Number of stores squashed (Count)
system.cpu.lsq0.rescheduledLoads                    4                       # Number of loads that were rescheduled (Count)
system.cpu.lsq0.blockedByCache                 154793                       # Number of times an access to memory failed due to the cache being blocked (Count)
system.cpu.lsq0.loadToUse::samples             249659                       # Distribution of cycle latency between the first time a load is issued and its completion (Unspecified)
system.cpu.lsq0.loadToUse::mean             73.469284                       # Distribution of cycle latency between the first time a load is issued and its completion (Unspecified)
system.cpu.lsq0.loadToUse::stdev            49.239094                       # Distribution of cycle latency between the first time a load is issued and its completion (Unspecified)
system.cpu.lsq0.loadToUse::0-9                   1760      0.70%      0.70% # Distribution of cycle latency between the first time a load is issued and its completion (Unspecified)
system.cpu.lsq0.loadToUse::10-19                 1781      0.71%      1.42% # Distribution of cycle latency between the first time a load is issued and its completion (Unspecified)
system.cpu.lsq0.loadToUse::20-29                28014     11.22%     12.64% # Distribution of cycle latency between the first time a load is issued and its completion (Unspecified)
system.cpu.lsq0.loadToUse::30-39                 9733      3.90%     16.54% # Distribution of cycle latency between the first time a load is issued and its completion (Unspecified)
system.cpu.lsq0.loadToUse::40-49                22026      8.82%     25.36% # Distribution of cycle latency between the first time a load is issued and its completion (Unspecified)
system.cpu.lsq0.loadToUse::50-59                23243      9.31%     34.67% # Distribution of cycle latency between the first time a load is issued and its completion (Unspecified)
system.cpu.lsq0.loadToUse::60-69                28034     11.23%     45.90% # Distribution of cycle latency between the first time a load is issued and its completion (Unspecified)
system.cpu.lsq0.loadToUse::70-79                41150     16.48%     62.38% # Distribution of cycle latency between the first time a load is issued and its completion (Unspecified)
system.cpu.lsq0.loadToUse::80-89                30214     12.10%     74.48% # Distribution of cycle latency between the first time a load is issued and its completion (Unspecified)
system.cpu.lsq0.loadToUse::90-99                31700     12.70%     87.18% # Distribution of cycle latency between the first time a load is issued and its completion (Unspecified)
system.cpu.lsq0.loadToUse::100-109              15332      6.14%     93.32% # Distribution of cycle latency between the first time a load is issued and its completion (Unspecified)
system.cpu.lsq0.loadToUse::110-119               7800      3.12%     96.45% # Distribution of cycle latency between the first time a load is issued and its completion (Unspecified)
system.cpu.lsq0.loadToUse::120-129               3609      1.45%     97.89% # Distribution of cycle latency between the first time a load is issued and its completion (Unspecified)
system.cpu.lsq0.loadToUse::130-139                968      0.39%     98.28% # Distribution of cycle latency between the first time a load is issued and its completion (Unspecified)
system.cpu.lsq0.loadToUse::140-149                665      0.27%     98.55% # Distribution of cycle latency between the first time a load is issued and its completion (Unspecified)
system.cpu.lsq0.loadToUse::150-159                334      0.13%     98.68% # Distribution of cycle latency between the first time a load is issued and its completion (Unspecified)
system.cpu.lsq0.loadToUse::160-169                145      0.06%     98.74% # Distribution of cycle latency between the first time a load is issued and its completion (Unspecified)
system.cpu.lsq0.loadToUse::170-179                106      0.04%     98.78% # Distribution of cycle latency between the first time a load is issued and its completion (Unspecified)
system.cpu.lsq0.loadToUse::180-189                 61      0.02%     98.80% # Distribution of cycle latency between the first time a load is issued and its completion (Unspecified)
system.cpu.lsq0.loadToUse::190-199                 48      0.02%     98.82% # Distribution of cycle latency between the first time a load is issued and its completion (Unspecified)
system.cpu.lsq0.loadToUse::200-209                 54      0.02%     98.85% # Distribution of cycle latency between the first time a load is issued and its completion (Unspecified)
system.cpu.lsq0.loadToUse::210-219                 24      0.01%     98.86% # Distribution of cycle latency between the first time a load is issued and its completion (Unspecified)
system.cpu.lsq0.loadToUse::220-229                 31      0.01%     98.87% # Distribution of cycle latency between the first time a load is issued and its completion (Unspecified)
system.cpu.lsq0.loadToUse::230-239                 14      0.01%     98.87% # Distribution of cycle latency between the first time a load is issued and its completion (Unspecified)
system.cpu.lsq0.loadToUse::240-249                 23      0.01%     98.88% # Distribution of cycle latency between the first time a load is issued and its completion (Unspecified)
system.cpu.lsq0.loadToUse::250-259                 41      0.02%     98.90% # Distribution of cycle latency between the first time a load is issued and its completion (Unspecified)
system.cpu.lsq0.loadToUse::260-269                 51      0.02%     98.92% # Distribution of cycle latency between the first time a load is issued and its completion (Unspecified)
system.cpu.lsq0.loadToUse::270-279                108      0.04%     98.96% # Distribution of cycle latency between the first time a load is issued and its completion (Unspecified)
system.cpu.lsq0.loadToUse::280-289                156      0.06%     99.03% # Distribution of cycle latency between the first time a load is issued and its completion (Unspecified)
system.cpu.lsq0.loadToUse::290-299                138      0.06%     99.08% # Distribution of cycle latency between the first time a load is issued and its completion (Unspecified)
system.cpu.lsq0.loadToUse::overflows             2296      0.92%    100.00% # Distribution of cycle latency between the first time a load is issued and its completion (Unspecified)
system.cpu.lsq0.loadToUse::min_value                2                       # Distribution of cycle latency between the first time a load is issued and its completion (Unspecified)
system.cpu.lsq0.loadToUse::max_value             1317                       # Distribution of cycle latency between the first time a load is issued and its completion (Unspecified)
system.cpu.lsq0.loadToUse::total               249659                       # Distribution of cycle latency between the first time a load is issued and its completion (Unspecified)
system.cpu.mmu.alignFaults                          0                       # Number of MMU faults due to alignment restrictions (Count)
system.cpu.mmu.prefetchFaults                       0                       # Number of MMU faults due to prefetch (Count)
system.cpu.mmu.domainFaults                         0                       # Number of MMU faults due to domain restrictions (Count)
system.cpu.mmu.permsFaults                          0                       # Number of MMU faults due to permissions restrictions (Count)
[...]
system.mem_ctrls.dram.perBankWrBursts::9            1                       # Per bank write bursts (Count)
system.mem_ctrls.dram.perBankWrBursts::10            6                       # Per bank write bursts (Count)
system.mem_ctrls.dram.perBankWrBursts::11            5                       # Per bank write bursts (Count)
system.mem_ctrls.dram.perBankWrBursts::12           22                       # Per bank write bursts (Count)
system.mem_ctrls.dram.perBankWrBursts::13           23                       # Per bank write bursts (Count)
system.mem_ctrls.dram.perBankWrBursts::14            3                       # Per bank write bursts (Count)
system.mem_ctrls.dram.perBankWrBursts::15            7                       # Per bank write bursts (Count)
system.mem_ctrls.dram.totQLat                 6577750                       # Total ticks spent queuing (Tick)
system.mem_ctrls.dram.totBusLat               1910000                       # Total ticks spent in databus transfers (Tick)
system.mem_ctrls.dram.totMemAccLat           13740250                       # Total ticks spent from burst creation until serviced by the DRAM (Tick)
system.mem_ctrls.dram.avgQLat                17219.24                       # Average queueing delay per DRAM burst ((Tick/Count))
system.mem_ctrls.dram.avgBusLat               5000.00                       # Average bus latency per DRAM burst ((Tick/Count))
system.mem_ctrls.dram.avgMemAccLat           35969.24                       # Average memory access latency per DRAM burst ((Tick/Count))
system.mem_ctrls.dram.readRowHits                 221                       # Number of row buffer hits during reads (Count)
system.mem_ctrls.dram.writeRowHits                 76                       # Number of row buffer hits during writes (Count)
system.mem_ctrls.dram.readRowHitRate            57.85                       # Row buffer hit rate for reads (Ratio)
system.mem_ctrls.dram.writeRowHitRate           66.09                       # Row buffer hit rate for writes (Ratio)
system.mem_ctrls.dram.bytesPerActivate::samples          188                       # Bytes accessed per row activation (Byte)
system.mem_ctrls.dram.bytesPerActivate::mean   154.893617                       # Bytes accessed per row activation (Byte)
system.mem_ctrls.dram.bytesPerActivate::gmean   112.829074                       # Bytes accessed per row activation (Byte)
system.mem_ctrls.dram.bytesPerActivate::stdev   155.631710                       # Bytes accessed per row activation (Byte)
system.mem_ctrls.dram.bytesPerActivate::0-127          104     55.32%     55.32% # Bytes accessed per row activation (Byte)
system.mem_ctrls.dram.bytesPerActivate::128-255           41     21.81%     77.13% # Bytes accessed per row activation (Byte)
system.mem_ctrls.dram.bytesPerActivate::256-383           25     13.30%     90.43% # Bytes accessed per row activation (Byte)
system.mem_ctrls.dram.bytesPerActivate::384-511            9      4.79%     95.21% # Bytes accessed per row activation (Byte)
system.mem_ctrls.dram.bytesPerActivate::512-639            5      2.66%     97.87% # Bytes accessed per row activation (Byte)
system.mem_ctrls.dram.bytesPerActivate::640-767            1      0.53%     98.40% # Bytes accessed per row activation (Byte)
system.mem_ctrls.dram.bytesPerActivate::768-895            1      0.53%     98.94% # Bytes accessed per row activation (Byte)
system.mem_ctrls.dram.bytesPerActivate::896-1023            1      0.53%     99.47% # Bytes accessed per row activation (Byte)
system.mem_ctrls.dram.bytesPerActivate::1024-1151            1      0.53%    100.00% # Bytes accessed per row activation (Byte)
system.mem_ctrls.dram.bytesPerActivate::total          188                       # Bytes accessed per row activation (Byte)
system.mem_ctrls.dram.bytesRead                 24448                       # Total bytes read (Byte)
system.mem_ctrls.dram.bytesWritten               7360                       # Total bytes written (Byte)
system.mem_ctrls.dram.avgRdBW             1070.660623                       # Average DRAM read bandwidth in MiBytes/s ((Byte/Second))
system.mem_ctrls.dram.avgWrBW              322.319298                       # Average DRAM write bandwidth in MiBytes/s ((Byte/Second))
system.mem_ctrls.dram.peakBW                 12800.00                       # Theoretical peak bandwidth in MiByte/s ((Byte/Second))
system.mem_ctrls.dram.busUtil                   10.88                       # Data bus utilization in percentage (Ratio)
system.mem_ctrls.dram.busUtilRead                8.36                       # Data bus utilization in percentage for reads (Ratio)
system.mem_ctrls.dram.busUtilWrite               2.52                       # Data bus utilization in percentage for writes (Ratio)
system.mem_ctrls.dram.pageHitRate               59.76                       # Row buffer hit rate, read and write combined (Ratio)
system.mem_ctrls.dram.power_state.pwrStateResidencyTicks::UNDEFINED     22834500                       # Cumulative time (in ticks) in various power states (Tick)
system.mem_ctrls.dram.rank0.actEnergy          614040                       # Energy for activate commands per rank (pJ) (Joule)
system.mem_ctrls.dram.rank0.preEnergy          307395                       # Energy for precharge commands per rank (pJ) (Joule)
system.mem_ctrls.dram.rank0.readEnergy        1113840                       # Energy for read commands per rank (pJ) (Joule)
system.mem_ctrls.dram.rank0.writeEnergy        193140                       # Energy for write commands per rank (pJ) (Joule)
system.mem_ctrls.dram.rank0.refreshEnergy 1843920.000000                       # Energy for refresh commands per rank (pJ) (Joule)
system.mem_ctrls.dram.rank0.actBackEnergy      9797730                       # Energy for active background per rank (pJ) (Joule)
system.mem_ctrls.dram.rank0.preBackEnergy       517440                       # Energy for precharge background per rank (pJ) (Joule)
system.mem_ctrls.dram.rank0.actPowerDownEnergy            0                       # Energy for active power-down per rank (pJ) (Joule)
system.mem_ctrls.dram.rank0.prePowerDownEnergy            0                       # Energy for precharge power-down per rank (pJ) (Joule)
system.mem_ctrls.dram.rank0.selfRefreshEnergy            0                       # Energy for self refresh per rank (pJ) (Joule)
system.mem_ctrls.dram.rank0.totalEnergy      14387505                       # Total energy per rank (pJ) (Joule)
system.mem_ctrls.dram.rank0.averagePower   630.077514                       # Core power per rank (mW) (Watt)
system.mem_ctrls.dram.rank0.totalIdleTime            0                       # Total Idle time Per DRAM Rank (Tick)
system.mem_ctrls.dram.rank0.pwrStateTime::IDLE      1266000                       # Time in different power states (Tick)
system.mem_ctrls.dram.rank0.pwrStateTime::REF       780000                       # Time in different power states (Tick)
system.mem_ctrls.dram.rank0.pwrStateTime::SREF            0                       # Time in different power states (Tick)
system.mem_ctrls.dram.rank0.pwrStateTime::PRE_PDN            0                       # Time in different power states (Tick)
system.mem_ctrls.dram.rank0.pwrStateTime::ACT     20788500                       # Time in different power states (Tick)
system.mem_ctrls.dram.rank0.pwrStateTime::ACT_PDN            0                       # Time in different power states (Tick)
system.mem_ctrls.dram.rank1.actEnergy          813960                       # Energy for activate commands per rank (pJ) (Joule)
system.mem_ctrls.dram.rank1.preEnergy          406065                       # Energy for precharge commands per rank (pJ) (Joule)
system.mem_ctrls.dram.rank1.readEnergy        1613640                       # Energy for read commands per rank (pJ) (Joule)
system.mem_ctrls.dram.rank1.writeEnergy        407160                       # Energy for write commands per rank (pJ) (Joule)
system.mem_ctrls.dram.rank1.refreshEnergy 1843920.000000                       # Energy for refresh commands per rank (pJ) (Joule)
system.mem_ctrls.dram.rank1.actBackEnergy     10136880                       # Energy for active background per rank (pJ) (Joule)
system.mem_ctrls.dram.rank1.preBackEnergy       231840                       # Energy for precharge background per rank (pJ) (Joule)
system.mem_ctrls.dram.rank1.actPowerDownEnergy            0                       # Energy for active power-down per rank (pJ) (Joule)
system.mem_ctrls.dram.rank1.prePowerDownEnergy            0                       # Energy for precharge power-down per rank (pJ) (Joule)
system.mem_ctrls.dram.rank1.selfRefreshEnergy            0                       # Energy for self refresh per rank (pJ) (Joule)
system.mem_ctrls.dram.rank1.totalEnergy      15453465                       # Total energy per rank (pJ) (Joule)
system.mem_ctrls.dram.rank1.averagePower   676.759509                       # Core power per rank (mW) (Watt)
system.mem_ctrls.dram.rank1.totalIdleTime            0                       # Total Idle time Per DRAM Rank (Tick)
system.mem_ctrls.dram.rank1.pwrStateTime::IDLE       520750                       # Time in different power states (Tick)
system.mem_ctrls.dram.rank1.pwrStateTime::REF       780000                       # Time in different power states (Tick)
system.mem_ctrls.dram.rank1.pwrStateTime::SREF            0                       # Time in different power states (Tick)
system.mem_ctrls.dram.rank1.pwrStateTime::PRE_PDN            0                       # Time in different power states (Tick)
system.mem_ctrls.dram.rank1.pwrStateTime::ACT     21533750                       # Time in different power states (Tick)
system.mem_ctrls.dram.rank1.pwrStateTime::ACT_PDN            0                       # Time in different power states (Tick)
system.mem_ctrls.power_state.pwrStateResidencyTicks::UNDEFINED     22834500                       # Cumulative time (in ticks) in various power states (Tick)
system.membus.transDist::ReadResp                 376                       # Transaction distribution (Count)
system.membus.transDist::WritebackDirty           120                       # Transaction distribution (Count)
system.membus.transDist::CleanEvict               316                       # Transaction distribution (Count)
system.membus.transDist::ReadExReq                  6                       # Transaction distribution (Count)
system.membus.transDist::ReadExResp                 6                       # Transaction distribution (Count)
system.membus.transDist::ReadSharedReq            376                       # Transaction distribution (Count)
system.membus.pktCount_system.l2.mem_side_port::system.mem_ctrls.port         1200                       # Packet count per connected requestor and responder (Count)
system.membus.pktCount::total                    1200                       # Packet count per connected requestor and responder (Count)
system.membus.pktSize_system.l2.mem_side_port::system.mem_ctrls.port        32128                       # Cumulative packet size per connected requestor and responder (Byte)
system.membus.pktSize::total                    32128                       # Cumulative packet size per connected requestor and responder (Byte)
system.membus.snoops                                0                       # Total snoops (Count)
system.membus.snoopTraffic                          0                       # Total snoop traffic (Byte)
system.membus.snoopFanout::samples                382                       # Request fanout histogram (Count)
system.membus.snoopFanout::mean                     0                       # Request fanout histogram (Count)
system.membus.snoopFanout::stdev                    0                       # Request fanout histogram (Count)
system.membus.snoopFanout::underflows               0      0.00%      0.00% # Request fanout histogram (Count)
system.membus.snoopFanout::0                      382    100.00%    100.00% # Request fanout histogram (Count)
system.membus.snoopFanout::1                        0      0.00%    100.00% # Request fanout histogram (Count)
system.membus.snoopFanout::overflows                0      0.00%    100.00% # Request fanout histogram (Count)
system.membus.snoopFanout::min_value                0                       # Request fanout histogram (Count)
system.membus.snoopFanout::max_value                0                       # Request fanout histogram (Count)
system.membus.snoopFanout::total                  382                       # Request fanout histogram (Count)
system.membus.power_state.pwrStateResidencyTicks::UNDEFINED     22834500                       # Cumulative time (in ticks) in various power states (Tick)
system.membus.reqLayer0.occupancy             1395500                       # Layer occupancy (ticks) (Tick)
system.membus.reqLayer0.utilization               0.1                       # Layer utilization (Ratio)
system.membus.respLayer1.occupancy            2056750                       # Layer occupancy (ticks) (Tick)
system.membus.respLayer1.utilization              0.1                       # Layer utilization (Ratio)
system.membus.snoop_filter.totRequests            818                       # Total number of requests made to the snoop filter. (Count)
system.membus.snoop_filter.hitSingleRequests          436                       # Number of requests hitting in the snoop filter with a single holder of the requested data. (Count)
system.membus.snoop_filter.hitMultiRequests            0                       # Number of requests hitting in the snoop filter with multiple (>1) holders of the requested data. (Count)
system.membus.snoop_filter.totSnoops                0                       # Total number of snoops made to the snoop filter. (Count)
system.membus.snoop_filter.hitSingleSnoops            0                       # Number of snoops hitting in the snoop filter with a single holder of the requested data. (Count)
system.membus.snoop_filter.hitMultiSnoops            0                       # Number of snoops hitting in the snoop filter with multiple (>1) holders of the requested data. (Count)
system.tol2bus.transDist::ReadResp                546                       # Transaction distribution (Count)
system.tol2bus.transDist::WritebackDirty          387                       # Transaction distribution (Count)
system.tol2bus.transDist::WritebackClean          234                       # Transaction distribution (Count)
system.tol2bus.transDist::CleanEvict              426                       # Transaction distribution (Count)
system.tol2bus.transDist::ReadExReq                31                       # Transaction distribution (Count)
system.tol2bus.transDist::ReadExResp               31                       # Transaction distribution (Count)
system.tol2bus.transDist::ReadCleanReq            235                       # Transaction distribution (Count)
system.tol2bus.transDist::ReadSharedReq           312                       # Transaction distribution (Count)
system.tol2bus.transDist::InvalidateReq             2                       # Transaction distribution (Count)
system.tol2bus.transDist::InvalidateResp            2                       # Transaction distribution (Count)
system.tol2bus.pktCount_system.cpu.icache.mem_side_port::system.l2.cpu_side_port          703                       # Packet count per connected requestor and responder (Count)
system.tol2bus.pktCount_system.cpu.dcache.mem_side_port::system.l2.cpu_side_port         1035                       # Packet count per connected requestor and responder (Count)
system.tol2bus.pktCount::total                   1738                       # Packet count per connected requestor and responder (Count)
system.tol2bus.pktSize_system.cpu.icache.mem_side_port::system.l2.cpu_side_port        29952                       # Cumulative packet size per connected requestor and responder (Byte)
system.tol2bus.pktSize_system.cpu.dcache.mem_side_port::system.l2.cpu_side_port        39040                       # Cumulative packet size per connected requestor and responder (Byte)
system.tol2bus.pktSize::total                   68992                       # Cumulative packet size per connected requestor and responder (Byte)
system.tol2bus.snoops                             468                       # Total snoops (Count)
system.tol2bus.snoopTraffic                      7680                       # Total snoop traffic (Byte)
system.tol2bus.snoopFanout::samples              1048                       # Request fanout histogram (Count)
system.tol2bus.snoopFanout::mean             0.029580                       # Request fanout histogram (Count)
system.tol2bus.snoopFanout::stdev            0.169507                       # Request fanout histogram (Count)
system.tol2bus.snoopFanout::underflows              0      0.00%      0.00% # Request fanout histogram (Count)
system.tol2bus.snoopFanout::0                    1017     97.04%     97.04% # Request fanout histogram (Count)
system.tol2bus.snoopFanout::1                      31      2.96%    100.00% # Request fanout histogram (Count)
system.tol2bus.snoopFanout::2                       0      0.00%    100.00% # Request fanout histogram (Count)
system.tol2bus.snoopFanout::overflows               0      0.00%    100.00% # Request fanout histogram (Count)
system.tol2bus.snoopFanout::min_value               0                       # Request fanout histogram (Count)
system.tol2bus.snoopFanout::max_value               1                       # Request fanout histogram (Count)
system.tol2bus.snoopFanout::total                1048                       # Request fanout histogram (Count)
system.tol2bus.power_state.pwrStateResidencyTicks::UNDEFINED     22834500                       # Cumulative time (in ticks) in various power states (Tick)
system.tol2bus.reqLayer0.occupancy            1080500                       # Layer occupancy (ticks) (Tick)
system.tol2bus.reqLayer0.utilization              0.0                       # Layer utilization (Ratio)
system.tol2bus.respLayer0.occupancy            351000                       # Layer occupancy (ticks) (Tick)
system.tol2bus.respLayer0.utilization             0.0                       # Layer utilization (Ratio)
system.tol2bus.respLayer1.occupancy            515500                       # Layer occupancy (ticks) (Tick)
system.tol2bus.respLayer1.utilization             0.0                       # Layer utilization (Ratio)
system.tol2bus.snoop_filter.totRequests          1159                       # Total number of requests made to the snoop filter. (Count)
system.tol2bus.snoop_filter.hitSingleRequests          579                       # Number of requests hitting in the snoop filter with a single holder of the requested data. (Count)
system.tol2bus.snoop_filter.hitMultiRequests            0                       # Number of requests hitting in the snoop filter with multiple (>1) holders of the requested data. (Count)
system.tol2bus.snoop_filter.totSnoops              31                       # Total number of snoops made to the snoop filter. (Count)
system.tol2bus.snoop_filter.hitSingleSnoops           31                       # Number of snoops hitting in the snoop filter with a single holder of the requested data. (Count)
system.tol2bus.snoop_filter.hitMultiSnoops            0                       # Number of snoops hitting in the snoop filter with multiple (>1) holders of the requested data. (Count)
system.voltage_domain.voltage                       1                       # Voltage in Volts (Volt)
system.workload.inst.arm                            0                       # number of arm instructions executed (Count)
system.workload.inst.quiesce                        0                       # number of quiesce instructions executed (Count)

---------- End Simulation Statistics   ----------
