
---------- Begin Simulation Statistics ----------
simSeconds                                   0.002386                       # Number of seconds simulated (Second)
simTicks                                   2385895000                       # Number of ticks simulated (Tick)
finalTick                                  2385895000                       # Number of ticks from beginning of simulation (restored from checkpoints and never reset) (Tick)
simFreq                                  1000000000000                       # The number of ticks per simulated second ((Tick/Second))
hostSeconds                                     39.38                       # Real time elapsed on the host (Second)
hostTickRate                                 60581467                       # The number of ticks simulated per host second (ticks/s) ((Tick/Second))
hostMemory                                     681144                       # Number of bytes of host memory used (Byte)
simInsts                                     12601829                       # Number of instructions simulated (Count)
simOps                                       13490452                       # Number of ops (including micro ops) simulated (Count)
hostInstRate                                   319978                       # Simulator instruction rate (inst/s) ((Count/Second))
hostOpRate                                     342542                       # Simulator op (including micro ops) rate (op/s) ((Count/Second))
system.clk_domain.clock                          1000                       # Clock period in ticks (Tick)
system.cpu.numCycles                          4771791                       # Number of cpu cycles simulated (Cycle)
system.cpu.numWorkItemsStarted                      0                       # Number of work items this cpu started (Count)
system.cpu.numWorkItemsCompleted                    0                       # Number of work items this cpu completed (Count)
system.cpu.instsAdded                        14094151                       # Number of instructions added to the IQ (excludes non-spec) (Count)
system.cpu.nonSpecInstsAdded                      387                       # Number of non-speculative instructions added to the IQ (Count)
system.cpu.instsIssued                       13897219                       # Number of instructions issued (Count)
system.cpu.squashedInstsIssued                   2159                       # Number of squashed instructions issued (Count)
system.cpu.squashedInstsExamined               604085                       # Number of squashed instructions iterated over during squash; mainly for profiling (Count)
system.cpu.squashedOperandsExamined            481632                       # Number of squashed operands that are examined and possibly removed from graph (Count)
system.cpu.squashedNonSpecRemoved                 127                       # Number of squashed non-spec instructions that were removed (Count)
system.cpu.numIssuedDist::samples             4625412                       # Number of insts issued each cycle (Count)
system.cpu.numIssuedDist::mean               3.004536                       # Number of insts issued each cycle (Count)
system.cpu.numIssuedDist::stdev              2.676692                       # Number of insts issued each cycle (Count)
system.cpu.numIssuedDist::underflows                0      0.00%      0.00% # Number of insts issued each cycle (Count)
system.cpu.numIssuedDist::0                   1476772     31.93%     31.93% # Number of insts issued each cycle (Count)
system.cpu.numIssuedDist::1                    332918      7.20%     39.12% # Number of insts issued each cycle (Count)
system.cpu.numIssuedDist::2                    356326      7.70%     46.83% # Number of insts issued each cycle (Count)
system.cpu.numIssuedDist::3                    353726      7.65%     54.48% # Number of insts issued each cycle (Count)
system.cpu.numIssuedDist::4                    573239     12.39%     66.87% # Number of insts issued each cycle (Count)
system.cpu.numIssuedDist::5                    557844     12.06%     78.93% # Number of insts issued each cycle (Count)
system.cpu.numIssuedDist::6                    393523      8.51%     87.44% # Number of insts issued each cycle (Count)
system.cpu.numIssuedDist::7                    301355      6.52%     93.95% # Number of insts issued each cycle (Count)
system.cpu.numIssuedDist::8                    279709      6.05%    100.00% # Number of insts issued each cycle (Count)
system.cpu.numIssuedDist::overflows                 0      0.00%    100.00% # Number of insts issued each cycle (Count)
system.cpu.numIssuedDist::min_value                 0                       # Number of insts issued each cycle (Count)
system.cpu.numIssuedDist::max_value                 8                       # Number of insts issued each cycle (Count)
system.cpu.numIssuedDist::total               4625412                       # Number of insts issued each cycle (Count)
system.cpu.statFuBusy::No_OpClass                   0      0.00%      0.00% # attempts to use FU when none available (Count)
system.cpu.statFuBusy::IntAlu                   25380     14.42%     14.42% # attempts to use FU when none available (Count)
system.cpu.statFuBusy::IntMult                    912      0.52%     14.94% # attempts to use FU when none available (Count)
system.cpu.statFuBusy::IntDiv                    1207      0.69%     15.62% # attempts to use FU when none available (Count)
system.cpu.statFuBusy::FloatAdd                     0      0.00%     15.62% # attempts to use FU when none available (Count)
system.cpu.statFuBusy::FloatCmp                     0      0.00%     15.62% # attempts to use FU when none available (Count)
system.cpu.statFuBusy::FloatCvt                     0      0.00%     15.62% # attempts to use FU when none available (Count)
system.cpu.statFuBusy::FloatMult                    0      0.00%     15.62% # attempts to use FU when none available (Count)
system.cpu.statFuBusy::FloatMultAcc                 0      0.00%     15.62% # attempts to use FU when none available (Count)
system.cpu.statFuBusy::FloatDiv                     0      0.00%     15.62% # attempts to use FU when none available (Count)
system.cpu.statFuBusy::FloatMisc                    0      0.00%     15.62% # attempts to use FU when none available (Count)
system.cpu.statFuBusy::FloatSqrt                    0      0.00%     15.62% # attempts to use FU when none available (Count)
system.cpu.statFuBusy::SimdAdd                   1525      0.87%     16.49% # attempts to use FU when none available (Count)
system.cpu.statFuBusy::SimdAddAcc                   0      0.00%     16.49% # attempts to use FU when none available (Count)
system.cpu.statFuBusy::SimdAlu                     21      0.01%     16.50% # attempts to use FU when none available (Count)
system.cpu.statFuBusy::SimdCmp                     17      0.01%     16.51% # attempts to use FU when none available (Count)
system.cpu.statFuBusy::SimdCvt                      0      0.00%     16.51% # attempts to use FU when none available (Count)
system.cpu.statFuBusy::SimdMisc                     0      0.00%     16.51% # attempts to use FU when none available (Count)
system.cpu.statFuBusy::SimdMult                106468     60.49%     77.00% # attempts to use FU when none available (Count)
system.cpu.statFuBusy::SimdMultAcc                  0      0.00%     77.00% # attempts to use FU when none available (Count)
system.cpu.statFuBusy::SimdShift                    0      0.00%     77.00% # attempts to use FU when none available (Count)
system.cpu.statFuBusy::SimdShiftAcc                 0      0.00%     77.00% # attempts to use FU when none available (Count)
system.cpu.statFuBusy::SimdDiv                      0      0.00%     77.00% # attempts to use FU when none available (Count)
system.cpu.statFuBusy::SimdSqrt                     0      0.00%     77.00% # attempts to use FU when none available (Count)
system.cpu.statFuBusy::SimdFloatAdd                 0      0.00%     77.00% # attempts to use FU when none available (Count)
system.cpu.statFuBusy::SimdFloatAlu                 0      0.00%     77.00% # attempts to use FU when none available (Count)
system.cpu.statFuBusy::SimdFloatCmp                 0      0.00%     77.00% # attempts to use FU when none available (Count)
system.cpu.statFuBusy::SimdFloatCvt                 0      0.00%     77.00% # attempts to use FU when none available (Count)
system.cpu.statFuBusy::SimdFloatDiv                 0      0.00%     77.00% # attempts to use FU when none available (Count)
system.cpu.statFuBusy::SimdFloatMisc                0      0.00%     77.00% # attempts to use FU when none available (Count)
system.cpu.statFuBusy::SimdFloatMult                0      0.00%     77.00% # attempts to use FU when none available (Count)
system.cpu.statFuBusy::SimdFloatMultAcc             0      0.00%     77.00% # attempts to use FU when none available (Count)
system.cpu.statFuBusy::SimdFloatSqrt                0      0.00%     77.00% # attempts to use FU when none available (Count)
system.cpu.statFuBusy::SimdReduceAdd                0      0.00%     77.00% # attempts to use FU when none available (Count)
system.cpu.statFuBusy::SimdReduceAlu                0      0.00%     77.00% # attempts to use FU when none available (Count)
system.cpu.statFuBusy::SimdReduceCmp                0      0.00%     77.00% # attempts to use FU when none available (Count)
system.cpu.statFuBusy::SimdFloatReduceAdd            0      0.00%     77.00% # attempts to use FU when none available (Count)
system.cpu.statFuBusy::SimdFloatReduceCmp            0      0.00%     77.00% # attempts to use FU when none available (Count)
system.cpu.statFuBusy::SimdAes                      0      0.00%     77.00% # attempts to use FU when none available (Count)
system.cpu.statFuBusy::SimdAesMix                   0      0.00%     77.00% # attempts to use FU when none available (Count)
system.cpu.statFuBusy::SimdSha1Hash                 0      0.00%     77.00% # attempts to use FU when none available (Count)
system.cpu.statFuBusy::SimdSha1Hash2                0      0.00%     77.00% # attempts to use FU when none available (Count)
system.cpu.statFuBusy::SimdSha256Hash               0      0.00%     77.00% # attempts to use FU when none available (Count)
system.cpu.statFuBusy::SimdSha256Hash2              0      0.00%     77.00% # attempts to use FU when none available (Count)
system.cpu.statFuBusy::SimdShaSigma2                0      0.00%     77.00% # attempts to use FU when none available (Count)
system.cpu.statFuBusy::SimdShaSigma3                0      0.00%     77.00% # attempts to use FU when none available (Count)
system.cpu.statFuBusy::SimdPredAlu                  0      0.00%     77.00% # attempts to use FU when none available (Count)
system.cpu.statFuBusy::MemRead                  25502     14.49%     91.48% # attempts to use FU when none available (Count)
system.cpu.statFuBusy::MemWrite                 14989      8.52%    100.00% # attempts to use FU when none available (Count)
system.cpu.statFuBusy::FloatMemRead                 0      0.00%    100.00% # attempts to use FU when none available (Count)
system.cpu.statFuBusy::FloatMemWrite                0      0.00%    100.00% # attempts to use FU when none available (Count)
system.cpu.statFuBusy::IprAccess                    0      0.00%    100.00% # attempts to use FU when none available (Count)
system.cpu.statFuBusy::InstPrefetch                 0      0.00%    100.00% # attempts to use FU when none available (Count)
system.cpu.statIssuedInstType_0::No_OpClass       309757      2.23%      2.23% # Number of instructions issued per FU type, per thread (Count)
system.cpu.statIssuedInstType_0::IntAlu       6359282     45.76%     47.99% # Number of instructions issued per FU type, per thread (Count)
system.cpu.statIssuedInstType_0::IntMult       623887      4.49%     52.48% # Number of instructions issued per FU type, per thread (Count)
system.cpu.statIssuedInstType_0::IntDiv          2712      0.02%     52.50% # Number of instructions issued per FU type, per thread (Count)
system.cpu.statIssuedInstType_0::FloatAdd            0      0.00%     52.50% # Number of instructions issued per FU type, per thread (Count)
system.cpu.statIssuedInstType_0::FloatCmp            0      0.00%     52.50% # Number of instructions issued per FU type, per thread (Count)
system.cpu.statIssuedInstType_0::FloatCvt            0      0.00%     52.50% # Number of instructions issued per FU type, per thread (Count)
system.cpu.statIssuedInstType_0::FloatMult            0      0.00%     52.50% # Number of instructions issued per FU type, per thread (Count)
system.cpu.statIssuedInstType_0::FloatMultAcc            0      0.00%     52.50% # Number of instructions issued per FU type, per thread (Count)
system.cpu.statIssuedInstType_0::FloatDiv            0      0.00%     52.50% # Number of instructions issued per FU type, per thread (Count)
system.cpu.statIssuedInstType_0::FloatMisc            2      0.00%     52.50% # Number of instructions issued per FU type, per thread (Count)
system.cpu.statIssuedInstType_0::FloatSqrt            0      0.00%     52.50% # Number of instructions issued per FU type, per thread (Count)
system.cpu.statIssuedInstType_0::SimdAdd      1224794      8.81%     61.31% # Number of instructions issued per FU type, per thread (Count)
system.cpu.statIssuedInstType_0::SimdAddAcc            0      0.00%     61.31% # Number of instructions issued per FU type, per thread (Count)
system.cpu.statIssuedInstType_0::SimdAlu          424      0.00%     61.31% # Number of instructions issued per FU type, per thread (Count)
system.cpu.statIssuedInstType_0::SimdCmp          125      0.00%     61.31% # Number of instructions issued per FU type, per thread (Count)
system.cpu.statIssuedInstType_0::SimdCvt            0      0.00%     61.31% # Number of instructions issued per FU type, per thread (Count)
system.cpu.statIssuedInstType_0::SimdMisc      1224669      8.81%     70.13% # Number of instructions issued per FU type, per thread (Count)
system.cpu.statIssuedInstType_0::SimdMult      1225066      8.82%     78.94% # Number of instructions issued per FU type, per thread (Count)
system.cpu.statIssuedInstType_0::SimdMultAcc            0      0.00%     78.94% # Number of instructions issued per FU type, per thread (Count)
system.cpu.statIssuedInstType_0::SimdShift            0      0.00%     78.94% # Number of instructions issued per FU type, per thread (Count)
system.cpu.statIssuedInstType_0::SimdShiftAcc            0      0.00%     78.94% # Number of instructions issued per FU type, per thread (Count)
system.cpu.statIssuedInstType_0::SimdDiv            0      0.00%     78.94% # Number of instructions issued per FU type, per thread (Count)
system.cpu.statIssuedInstType_0::SimdSqrt            0      0.00%     78.94% # Number of instructions issued per FU type, per thread (Count)
system.cpu.statIssuedInstType_0::SimdFloatAdd            0      0.00%     78.94% # Number of instructions issued per FU type, per thread (Count)
system.cpu.statIssuedInstType_0::SimdFloatAlu            0      0.00%     78.94% # Number of instructions issued per FU type, per thread (Count)
system.cpu.statIssuedInstType_0::SimdFloatCmp            0      0.00%     78.94% # Number of instructions issued per FU type, per thread (Count)
system.cpu.statIssuedInstType_0::SimdFloatCvt            0      0.00%     78.94% # Number of instructions issued per FU type, per thread (Count)
system.cpu.statIssuedInstType_0::SimdFloatDiv            0      0.00%     78.94% # Number of instructions issued per FU type, per thread (Count)
system.cpu.statIssuedInstType_0::SimdFloatMisc            0      0.00%     78.94% # Number of instructions issued per FU type, per thread (Count)
system.cpu.statIssuedInstType_0::SimdFloatMult            0      0.00%     78.94% # Number of instructions issued per FU type, per thread (Count)
system.cpu.statIssuedInstType_0::SimdFloatMultAcc            0      0.00%     78.94% # Number of instructions issued per FU type, per thread (Count)
system.cpu.statIssuedInstType_0::SimdFloatSqrt            0      0.00%     78.94% # Number of instructions issued per FU type, per thread (Count)
system.cpu.statIssuedInstType_0::SimdReduceAdd            0      0.00%     78.94% # Number of instructions issued per FU type, per thread (Count)
system.cpu.statIssuedInstType_0::SimdReduceAlu            0      0.00%     78.94% # Number of instructions issued per FU type, per thread (Count)
system.cpu.statIssuedInstType_0::SimdReduceCmp            0      0.00%     78.94% # Number of instructions issued per FU type, per thread (Count)
system.cpu.statIssuedInstType_0::SimdFloatReduceAdd            0      0.00%     78.94% # Number of instructions issued per FU type, per thread (Count)
system.cpu.statIssuedInstType_0::SimdFloatReduceCmp            0      0.00%     78.94% # Number of instructions issued per FU type, per thread (Count)
system.cpu.statIssuedInstType_0::SimdAes            0      0.00%     78.94% # Number of instructions issued per FU type, per thread (Count)
system.cpu.statIssuedInstType_0::SimdAesMix            0      0.00%     78.94% # Number of instructions issued per FU type, per thread (Count)
system.cpu.statIssuedInstType_0::SimdSha1Hash            0      0.00%     78.94% # Number of instructions issued per FU type, per thread (Count)
system.cpu.statIssuedInstType_0::SimdSha1Hash2            0      0.00%     78.94% # Number of instructions issued per FU type, per thread (Count)
system.cpu.statIssuedInstType_0::SimdSha256Hash            0      0.00%     78.94% # Number of instructions issued per FU type, per thread (Count)
system.cpu.statIssuedInstType_0::SimdSha256Hash2            0      0.00%     78.94% # Number of instructions issued per FU type, per thread (Count)
system.cpu.statIssuedInstType_0::SimdShaSigma2            0      0.00%     78.94% # Number of instructions issued per FU type, per thread (Count)
system.cpu.statIssuedInstType_0::SimdShaSigma3            0      0.00%     78.94% # Number of instructions issued per FU type, per thread (Count)
system.cpu.statIssuedInstType_0::SimdPredAlu            0      0.00%     78.94% # Number of instructions issued per FU type, per thread (Count)
system.cpu.statIssuedInstType_0::MemRead      2093787     15.07%     94.01% # Number of instructions issued per FU type, per thread (Count)
system.cpu.statIssuedInstType_0::MemWrite       832714      5.99%    100.00% # Number of instructions issued per FU type, per thread (Count)
system.cpu.statIssuedInstType_0::FloatMemRead            0      0.00%    100.00% # Number of instructions issued per FU type, per thread (Count)
system.cpu.statIssuedInstType_0::FloatMemWrite            0      0.00%    100.00% # Number of instructions issued per FU type, per thread (Count)
system.cpu.statIssuedInstType_0::IprAccess            0      0.00%    100.00% # Number of instructions issued per FU type, per thread (Count)
system.cpu.statIssuedInstType_0::InstPrefetch            0      0.00%    100.00% # Number of instructions issued per FU type, per thread (Count)
system.cpu.statIssuedInstType_0::total       13897219                       # Number of instructions issued per FU type, per thread (Count)
system.cpu.issueRate                         2.912370                       # Inst issue rate ((Count/Cycle))
system.cpu.fuBusy                              176021                       # FU busy when requested (Count)
system.cpu.fuBusyRate                        0.012666                       # FU busy rate (busy events/executed inst) ((Count/Count))
system.cpu.intInstQueueReads                 23277101                       # Number of integer instruction queue reads (Count)
system.cpu.intInstQueueWrites                10064246                       # Number of integer instruction queue writes (Count)
system.cpu.intInstQueueWakeupAccesses         9194868                       # Number of integer instruction queue wakeup accesses (Count)
system.cpu.fpInstQueueReads                         0                       # Number of floating instruction queue reads (Count)
system.cpu.fpInstQueueWrites                        0                       # Number of floating instruction queue writes (Count)
system.cpu.fpInstQueueWakeupAccesses                0                       # Number of floating instruction queue wakeup accesses (Count)
system.cpu.vecInstQueueReads                  9320929                       # Number of vector instruction queue reads (Count)
system.cpu.vecInstQueueWrites                 4634757                       # Number of vector instruction queue writes (Count)
system.cpu.vecInstQueueWakeupAccesses         4604326                       # Number of vector instruction queue wakeup accesses (Count)
system.cpu.intAluAccesses                     9357428                       # Number of integer alu accesses (Count)
system.cpu.fpAluAccesses                            0                       # Number of floating point alu accesses (Count)
system.cpu.vecAluAccesses                     4406055                       # Number of vector alu accesses (Count)
system.cpu.numInsts                          13868482                       # Number of executed instructions (Count)
system.cpu.numLoadInsts                       2081738                       # Number of load instructions executed (Count)
system.cpu.numSquashedInsts                     28737                       # Number of squashed instructions skipped in execute (Count)
system.cpu.numSwp                                   0                       # Number of swp insts executed (Count)
system.cpu.numNop                                 441                       # Number of nop insts executed (Count)
system.cpu.numRefs                            2912559                       # Number of memory reference insts executed (Count)
system.cpu.numBranches                        1153736                       # Number of branches executed (Count)
system.cpu.numStoreInsts                       830821                       # Number of stores executed (Count)
system.cpu.numRate                           2.906347                       # Inst execution rate ((Count/Cycle))
system.cpu.timesIdled                            1570                       # Number of times that the entire CPU went into an idle state and unscheduled itself (Count)
system.cpu.idleCycles                          146379                       # Total number of cycles that the CPU has spent unscheduled due to idling (Cycle)
system.cpu.committedInsts                    12601829                       # Number of Instructions Simulated (Count)
system.cpu.committedOps                      13490452                       # Number of Ops (including micro ops) Simulated (Count)
system.cpu.cpi                               0.378659                       # CPI: Cycles Per Instruction ((Cycle/Count))
system.cpu.totalCpi                          0.378659                       # CPI: Total CPI of All Threads ((Cycle/Count))
system.cpu.ipc                               2.640901                       # IPC: Instructions Per Cycle ((Count/Cycle))
system.cpu.totalIpc                          2.640901                       # IPC: Total IPC of All Threads ((Count/Cycle))
system.cpu.intRegfileReads                   15235967                       # Number of integer regfile reads (Count)
system.cpu.intRegfileWrites                   7448924                       # Number of integer regfile writes (Count)
system.cpu.vecRegfileReads                    9515649                       # number of vector regfile reads (Count)
system.cpu.ccRegfileReads                     3231141                       # number of cc regfile reads (Count)
system.cpu.ccRegfileWrites                    3227850                       # number of cc regfile writes (Count)
system.cpu.miscRegfileReads                   8840146                       # number of misc regfile reads (Count)
system.cpu.miscRegfileWrites                      201                       # number of misc regfile writes (Count)
system.cpu.MemDepUnit__0.insertedLoads        2079254                       # Number of loads inserted to the mem dependence unit. (Count)
system.cpu.MemDepUnit__0.insertedStores        840023                       # Number of stores inserted to the mem dependence unit. (Count)
system.cpu.MemDepUnit__0.conflictingLoads       506732                       # Number of conflicting loads. (Count)
system.cpu.MemDepUnit__0.conflictingStores        41453                       # Number of conflicting stores. (Count)
system.cpu.MemDepUnit__1.insertedLoads              0                       # Number of loads inserted to the mem dependence unit. (Count)
system.cpu.MemDepUnit__1.insertedStores             0                       # Number of stores inserted to the mem dependence unit. (Count)
system.cpu.MemDepUnit__1.conflictingLoads            0                       # Number of conflicting loads. (Count)
system.cpu.MemDepUnit__1.conflictingStores            0                       # Number of conflicting stores. (Count)
system.cpu.MemDepUnit__2.insertedLoads              0                       # Number of loads inserted to the mem dependence unit. (Count)
system.cpu.MemDepUnit__2.insertedStores             0                       # Number of stores inserted to the mem dependence unit. (Count)
system.cpu.MemDepUnit__2.conflictingLoads            0                       # Number of conflicting loads. (Count)
system.cpu.MemDepUnit__2.conflictingStores            0                       # Number of conflicting stores. (Count)
system.cpu.MemDepUnit__3.insertedLoads              0                       # Number of loads inserted to the mem dependence unit. (Count)
system.cpu.MemDepUnit__3.insertedStores             0                       # Number of stores inserted to the mem dependence unit. (Count)
system.cpu.MemDepUnit__3.conflictingLoads            0                       # Number of conflicting loads. (Count)
system.cpu.MemDepUnit__3.conflictingStores            0                       # Number of conflicting stores. (Count)
system.cpu.branchPred.lookups                 1279523                       # Number of BP lookups (Count)
system.cpu.branchPred.condPredicted           1204991                       # Number of conditional branches predicted (Count)
system.cpu.branchPred.condIncorrect             16580                       # Number of conditional branches incorrect (Count)
system.cpu.branchPred.BTBLookups               294107                       # Number of BTB lookups (Count)
system.cpu.branchPred.BTBUpdates                 8482                       # Number of BTB updates (Count)
system.cpu.branchPred.BTBHits                  290177                       # Number of BTB hits (Count)
system.cpu.branchPred.BTBHitRatio            0.986638                       # BTB Hit Ratio (Ratio)
system.cpu.branchPred.RASUsed                   17553                       # Number of times the RAS was used to get a target. (Count)
system.cpu.branchPred.RASIncorrect                 43                       # Number of incorrect RAS predictions. (Count)
system.cpu.branchPred.indirectLookups            6649                       # Number of indirect predictor lookups. (Count)
system.cpu.branchPred.indirectHits               1339                       # Number of indirect target hits. (Count)
system.cpu.branchPred.indirectMisses             5310                       # Number of indirect misses. (Count)
system.cpu.branchPred.indirectMispredicted          667                       # Number of mispredicted indirect branches. (Count)
system.cpu.commit.commitSquashedInsts          601263                       # The number of squashed insts skipped by commit (Count)
system.cpu.commit.commitNonSpecStalls             260                       # The number of times commit has been forced to stall to communicate backwards (Count)
system.cpu.commit.branchMispredicts             16428                       # The number of times a branch was mispredicted (Count)
system.cpu.commit.numCommittedDist::samples      4532716                       # Number of insts commited each cycle (Count)
system.cpu.commit.numCommittedDist::mean     2.976266                       # Number of insts commited each cycle (Count)
system.cpu.commit.numCommittedDist::stdev     3.427919                       # Number of insts commited each cycle (Count)
system.cpu.commit.numCommittedDist::underflows            0      0.00%      0.00% # Number of insts commited each cycle (Count)
system.cpu.commit.numCommittedDist::0         1947392     42.96%     42.96% # Number of insts commited each cycle (Count)
system.cpu.commit.numCommittedDist::1          596100     13.15%     56.11% # Number of insts commited each cycle (Count)
system.cpu.commit.numCommittedDist::2          184464      4.07%     60.18% # Number of insts commited each cycle (Count)
system.cpu.commit.numCommittedDist::3           90729      2.00%     62.19% # Number of insts commited each cycle (Count)
system.cpu.commit.numCommittedDist::4          239482      5.28%     67.47% # Number of insts commited each cycle (Count)
system.cpu.commit.numCommittedDist::5           67845      1.50%     68.97% # Number of insts commited each cycle (Count)
system.cpu.commit.numCommittedDist::6           83917      1.85%     70.82% # Number of insts commited each cycle (Count)
system.cpu.commit.numCommittedDist::7          129596      2.86%     73.68% # Number of insts commited each cycle (Count)
system.cpu.commit.numCommittedDist::8         1193191     26.32%    100.00% # Number of insts commited each cycle (Count)
system.cpu.commit.numCommittedDist::overflows            0      0.00%    100.00% # Number of insts commited each cycle (Count)
system.cpu.commit.numCommittedDist::min_value            0                       # Number of insts commited each cycle (Count)
system.cpu.commit.numCommittedDist::max_value            8                       # Number of insts commited each cycle (Count)
system.cpu.commit.numCommittedDist::total      4532716                       # Number of insts commited each cycle (Count)
system.cpu.commit.instsCommitted             12601947                       # Number of instructions committed (Count)
system.cpu.commit.opsCommitted               13490570                       # Number of ops (including micro ops) committed (Count)
system.cpu.commit.memRefs                     2767554                       # Number of memory references committed (Count)
system.cpu.commit.loads                       1966389                       # Number of loads committed (Count)
system.cpu.commit.amos                            100                       # Number of atomic instructions committed (Count)
system.cpu.commit.membars                         108                       # Number of memory barriers committed (Count)
system.cpu.commit.branches                    1103724                       # Number of branches committed (Count)
system.cpu.commit.vectorInstructions          4598929                       # Number of committed Vector instructions. (Count)
system.cpu.commit.floating                          0                       # Number of committed floating point instructions. (Count)
system.cpu.commit.integer                     9923824                       # Number of committed integer instructions. (Count)
system.cpu.commit.functionCalls                 10998                       # Number of function calls committed. (Count)
system.cpu.commit.committedInstType_0::No_OpClass       308884      2.29%      2.29% # Class of committed instruction (Count)
system.cpu.commit.committedInstType_0::IntAlu      6120651     45.37%     47.66% # Class of committed instruction (Count)
system.cpu.commit.committedInstType_0::IntMult       620868      4.60%     52.26% # Class of committed instruction (Count)
system.cpu.commit.committedInstType_0::IntDiv         2565      0.02%     52.28% # Class of committed instruction (Count)
system.cpu.commit.committedInstType_0::FloatAdd            0      0.00%     52.28% # Class of committed instruction (Count)
system.cpu.commit.committedInstType_0::FloatCmp            0      0.00%     52.28% # Class of committed instruction (Count)
system.cpu.commit.committedInstType_0::FloatCvt            0      0.00%     52.28% # Class of committed instruction (Count)
system.cpu.commit.committedInstType_0::FloatMult            0      0.00%     52.28% # Class of committed instruction (Count)
system.cpu.commit.committedInstType_0::FloatMultAcc            0      0.00%     52.28% # Class of committed instruction (Count)
system.cpu.commit.committedInstType_0::FloatDiv            0      0.00%     52.28% # Class of committed instruction (Count)
system.cpu.commit.committedInstType_0::FloatMisc            2      0.00%     52.28% # Class of committed instruction (Count)
system.cpu.commit.committedInstType_0::FloatSqrt            0      0.00%     52.28% # Class of committed instruction (Count)
system.cpu.commit.committedInstType_0::SimdAdd      1223215      9.07%     61.35% # Class of committed instruction (Count)
system.cpu.commit.committedInstType_0::SimdAddAcc            0      0.00%     61.35% # Class of committed instruction (Count)
system.cpu.commit.committedInstType_0::SimdAlu          361      0.00%     61.35% # Class of committed instruction (Count)
system.cpu.commit.committedInstType_0::SimdCmp           97      0.00%     61.35% # Class of committed instruction (Count)
system.cpu.commit.committedInstType_0::SimdCvt            0      0.00%     61.35% # Class of committed instruction (Count)
system.cpu.commit.committedInstType_0::SimdMisc      1223237      9.07%     70.42% # Class of committed instruction (Count)
system.cpu.commit.committedInstType_0::SimdMult      1223136      9.07%     79.49% # Class of committed instruction (Count)
system.cpu.commit.committedInstType_0::SimdMultAcc            0      0.00%     79.49% # Class of committed instruction (Count)
system.cpu.commit.committedInstType_0::SimdShift            0      0.00%     79.49% # Class of committed instruction (Count)
system.cpu.commit.committedInstType_0::SimdShiftAcc            0      0.00%     79.49% # Class of committed instruction (Count)
system.cpu.commit.committedInstType_0::SimdDiv            0      0.00%     79.49% # Class of committed instruction (Count)
system.cpu.commit.committedInstType_0::SimdSqrt            0      0.00%     79.49% # Class of committed instruction (Count)
system.cpu.commit.committedInstType_0::SimdFloatAdd            0      0.00%     79.49% # Class of committed instruction (Count)
system.cpu.commit.committedInstType_0::SimdFloatAlu            0      0.00%     79.49% # Class of committed instruction (Count)
system.cpu.commit.committedInstType_0::SimdFloatCmp            0      0.00%     79.49% # Class of committed instruction (Count)
system.cpu.commit.committedInstType_0::SimdFloatCvt            0      0.00%     79.49% # Class of committed instruction (Count)
system.cpu.commit.committedInstType_0::SimdFloatDiv            0      0.00%     79.49% # Class of committed instruction (Count)
system.cpu.commit.committedInstType_0::SimdFloatMisc            0      0.00%     79.49% # Class of committed instruction (Count)
system.cpu.commit.committedInstType_0::SimdFloatMult            0      0.00%     79.49% # Class of committed instruction (Count)
system.cpu.commit.committedInstType_0::SimdFloatMultAcc            0      0.00%     79.49% # Class of committed instruction (Count)
system.cpu.commit.committedInstType_0::SimdFloatSqrt            0      0.00%     79.49% # Class of committed instruction (Count)
system.cpu.commit.committedInstType_0::SimdReduceAdd            0      0.00%     79.49% # Class of committed instruction (Count)
system.cpu.commit.committedInstType_0::SimdReduceAlu            0      0.00%     79.49% # Class of committed instruction (Count)
system.cpu.commit.committedInstType_0::SimdReduceCmp            0      0.00%     79.49% # Class of committed instruction (Count)
system.cpu.commit.committedInstType_0::SimdFloatReduceAdd            0      0.00%     79.49% # Class of committed instruction (Count)
system.cpu.commit.committedInstType_0::SimdFloatReduceCmp            0      0.00%     79.49% # Class of committed instruction (Count)
system.cpu.commit.committedInstType_0::SimdAes            0      0.00%     79.49% # Class of committed instruction (Count)
system.cpu.commit.committedInstType_0::SimdAesMix            0      0.00%     79.49% # Class of committed instruction (Count)
system.cpu.commit.committedInstType_0::SimdSha1Hash            0      0.00%     79.49% # Class of committed instruction (Count)
system.cpu.commit.committedInstType_0::SimdSha1Hash2            0      0.00%     79.49% # Class of committed instruction (Count)
system.cpu.commit.committedInstType_0::SimdSha256Hash            0      0.00%     79.49% # Class of committed instruction (Count)
system.cpu.commit.committedInstType_0::SimdSha256Hash2            0      0.00%     79.49% # Class of committed instruction (Count)
system.cpu.commit.committedInstType_0::SimdShaSigma2            0      0.00%     79.49% # Class of committed instruction (Count)
system.cpu.commit.committedInstType_0::SimdShaSigma3            0      0.00%     79.49% # Class of committed instruction (Count)
system.cpu.commit.committedInstType_0::SimdPredAlu            0      0.00%     79.49% # Class of committed instruction (Count)
system.cpu.commit.committedInstType_0::MemRead      1966389     14.58%     94.06% # Class of committed instruction (Count)
system.cpu.commit.committedInstType_0::MemWrite       801165      5.94%    100.00% # Class of committed instruction (Count)
system.cpu.commit.committedInstType_0::FloatMemRead            0      0.00%    100.00% # Class of committed instruction (Count)
system.cpu.commit.committedInstType_0::FloatMemWrite            0      0.00%    100.00% # Class of committed instruction (Count)
system.cpu.commit.committedInstType_0::IprAccess            0      0.00%    100.00% # Class of committed instruction (Count)
system.cpu.commit.committedInstType_0::InstPrefetch            0      0.00%    100.00% # Class of committed instruction (Count)
system.cpu.commit.committedInstType_0::total     13490570                       # Class of committed instruction (Count)
system.cpu.commit.commitEligibleSamples       1193191                       # number cycles where commit BW limit reached (Cycle)
system.cpu.dcache.demandHits::cpu.data        2449139                       # number of demand (read+write) hits (Count)
system.cpu.dcache.demandHits::total           2449139                       # number of demand (read+write) hits (Count)
system.cpu.dcache.overallHits::cpu.data       2449139                       # number of overall hits (Count)
system.cpu.dcache.overallHits::total          2449139                       # number of overall hits (Count)
system.cpu.dcache.demandMisses::cpu.data        90762                       # number of demand (read+write) misses (Count)
system.cpu.dcache.demandMisses::total           90762                       # number of demand (read+write) misses (Count)
system.cpu.dcache.overallMisses::cpu.data        90762                       # number of overall misses (Count)
system.cpu.dcache.overallMisses::total          90762                       # number of overall misses (Count)
system.cpu.dcache.demandMissLatency::cpu.data   4917488981                       # number of demand (read+write) miss ticks (Tick)
system.cpu.dcache.demandMissLatency::total   4917488981                       # number of demand (read+write) miss ticks (Tick)
system.cpu.dcache.overallMissLatency::cpu.data   4917488981                       # number of overall miss ticks (Tick)
system.cpu.dcache.overallMissLatency::total   4917488981                       # number of overall miss ticks (Tick)
system.cpu.dcache.demandAccesses::cpu.data      2539901                       # number of demand (read+write) accesses (Count)
system.cpu.dcache.demandAccesses::total       2539901                       # number of demand (read+write) accesses (Count)
system.cpu.dcache.overallAccesses::cpu.data      2539901                       # number of overall (read+write) accesses (Count)
system.cpu.dcache.overallAccesses::total      2539901                       # number of overall (read+write) accesses (Count)
system.cpu.dcache.demandMissRate::cpu.data     0.035734                       # miss rate for demand accesses (Ratio)
system.cpu.dcache.demandMissRate::total      0.035734                       # miss rate for demand accesses (Ratio)
system.cpu.dcache.overallMissRate::cpu.data     0.035734                       # miss rate for overall accesses (Ratio)
system.cpu.dcache.overallMissRate::total     0.035734                       # miss rate for overall accesses (Ratio)
system.cpu.dcache.demandAvgMissLatency::cpu.data 54180.042099                       # average overall miss latency in ticks ((Tick/Count))
system.cpu.dcache.demandAvgMissLatency::total 54180.042099                       # average overall miss latency in ticks ((Tick/Count))
system.cpu.dcache.overallAvgMissLatency::cpu.data 54180.042099                       # average overall miss latency ((Tick/Count))
system.cpu.dcache.overallAvgMissLatency::total 54180.042099                       # average overall miss latency ((Tick/Count))
system.cpu.dcache.blockedCycles::no_mshrs        93059                       # number of cycles access was blocked (Cycle)
system.cpu.dcache.blockedCycles::no_targets          459                       # number of cycles access was blocked (Cycle)
system.cpu.dcache.blockedCauses::no_mshrs         2118                       # number of times access was blocked (Count)
system.cpu.dcache.blockedCauses::no_targets            7                       # number of times access was blocked (Count)
system.cpu.dcache.avgBlocked::no_mshrs      43.937205                       # average number of cycles each access was blocked ((Cycle/Count))
system.cpu.dcache.avgBlocked::no_targets    65.571429                       # average number of cycles each access was blocked ((Cycle/Count))
system.cpu.dcache.writebacks::writebacks         9645                       # number of writebacks (Count)
system.cpu.dcache.writebacks::total              9645                       # number of writebacks (Count)
system.cpu.dcache.demandMshrHits::cpu.data        55185                       # number of demand (read+write) MSHR hits (Count)
system.cpu.dcache.demandMshrHits::total         55185                       # number of demand (read+write) MSHR hits (Count)
system.cpu.dcache.overallMshrHits::cpu.data        55185                       # number of overall MSHR hits (Count)
system.cpu.dcache.overallMshrHits::total        55185                       # number of overall MSHR hits (Count)
system.cpu.dcache.demandMshrMisses::cpu.data        35577                       # number of demand (read+write) MSHR misses (Count)
system.cpu.dcache.demandMshrMisses::total        35577                       # number of demand (read+write) MSHR misses (Count)
system.cpu.dcache.overallMshrMisses::cpu.data        35577                       # number of overall MSHR misses (Count)
system.cpu.dcache.overallMshrMisses::total        35577                       # number of overall MSHR misses (Count)
system.cpu.dcache.demandMshrMissLatency::cpu.data   1427691196                       # number of demand (read+write) MSHR miss ticks (Tick)
system.cpu.dcache.demandMshrMissLatency::total   1427691196                       # number of demand (read+write) MSHR miss ticks (Tick)
system.cpu.dcache.overallMshrMissLatency::cpu.data   1427691196                       # number of overall MSHR miss ticks (Tick)
system.cpu.dcache.overallMshrMissLatency::total   1427691196                       # number of overall MSHR miss ticks (Tick)
system.cpu.dcache.demandMshrMissRate::cpu.data     0.014007                       # mshr miss ratio for demand accesses (Ratio)
system.cpu.dcache.demandMshrMissRate::total     0.014007                       # mshr miss ratio for demand accesses (Ratio)
system.cpu.dcache.overallMshrMissRate::cpu.data     0.014007                       # mshr miss ratio for overall accesses (Ratio)
system.cpu.dcache.overallMshrMissRate::total     0.014007                       # mshr miss ratio for overall accesses (Ratio)
system.cpu.dcache.demandAvgMshrMissLatency::cpu.data 40129.611715                       # average overall mshr miss latency ((Tick/Count))
system.cpu.dcache.demandAvgMshrMissLatency::total 40129.611715                       # average overall mshr miss latency ((Tick/Count))
system.cpu.dcache.overallAvgMshrMissLatency::cpu.data 40129.611715                       # average overall mshr miss latency ((Tick/Count))
system.cpu.dcache.overallAvgMshrMissLatency::total 40129.611715                       # average overall mshr miss latency ((Tick/Count))
system.cpu.dcache.replacements                  34559                       # number of replacements (Count)
system.cpu.dcache.ReadReq.hits::cpu.data      1653776                       # number of ReadReq hits (Count)
system.cpu.dcache.ReadReq.hits::total         1653776                       # number of ReadReq hits (Count)
system.cpu.dcache.ReadReq.misses::cpu.data        85046                       # number of ReadReq misses (Count)
system.cpu.dcache.ReadReq.misses::total         85046                       # number of ReadReq misses (Count)
system.cpu.dcache.ReadReq.missLatency::cpu.data   4579433000                       # number of ReadReq miss ticks (Tick)
system.cpu.dcache.ReadReq.missLatency::total   4579433000                       # number of ReadReq miss ticks (Tick)
system.cpu.dcache.ReadReq.accesses::cpu.data      1738822                       # number of ReadReq accesses(hits+misses) (Count)
system.cpu.dcache.ReadReq.accesses::total      1738822                       # number of ReadReq accesses(hits+misses) (Count)
system.cpu.dcache.ReadReq.missRate::cpu.data     0.048910                       # miss rate for ReadReq accesses (Ratio)
system.cpu.dcache.ReadReq.missRate::total     0.048910                       # miss rate for ReadReq accesses (Ratio)
system.cpu.dcache.ReadReq.avgMissLatency::cpu.data 53846.541871                       # average ReadReq miss latency ((Tick/Count))
system.cpu.dcache.ReadReq.avgMissLatency::total 53846.541871                       # average ReadReq miss latency ((Tick/Count))
system.cpu.dcache.ReadReq.mshrHits::cpu.data        51724                       # number of ReadReq MSHR hits (Count)
system.cpu.dcache.ReadReq.mshrHits::total        51724                       # number of ReadReq MSHR hits (Count)
system.cpu.dcache.ReadReq.mshrMisses::cpu.data        33322                       # number of ReadReq MSHR misses (Count)
system.cpu.dcache.ReadReq.mshrMisses::total        33322                       # number of ReadReq MSHR misses (Count)
system.cpu.dcache.ReadReq.mshrMissLatency::cpu.data   1292817000                       # number of ReadReq MSHR miss ticks (Tick)
system.cpu.dcache.ReadReq.mshrMissLatency::total   1292817000                       # number of ReadReq MSHR miss ticks (Tick)
system.cpu.dcache.ReadReq.mshrMissRate::cpu.data     0.019164                       # mshr miss rate for ReadReq accesses (Ratio)
system.cpu.dcache.ReadReq.mshrMissRate::total     0.019164                       # mshr miss rate for ReadReq accesses (Ratio)
system.cpu.dcache.ReadReq.avgMshrMissLatency::cpu.data 38797.701218                       # average ReadReq mshr miss latency ((Tick/Count))
system.cpu.dcache.ReadReq.avgMshrMissLatency::total 38797.701218                       # average ReadReq mshr miss latency ((Tick/Count))
system.cpu.dcache.SwapReq.hits::cpu.data           94                       # number of SwapReq hits (Count)
system.cpu.dcache.SwapReq.hits::total              94                       # number of SwapReq hits (Count)
system.cpu.dcache.SwapReq.misses::cpu.data            6                       # number of SwapReq misses (Count)
system.cpu.dcache.SwapReq.misses::total             6                       # number of SwapReq misses (Count)
system.cpu.dcache.SwapReq.missLatency::cpu.data       240000                       # number of SwapReq miss ticks (Tick)
system.cpu.dcache.SwapReq.missLatency::total       240000                       # number of SwapReq miss ticks (Tick)
system.cpu.dcache.SwapReq.accesses::cpu.data          100                       # number of SwapReq accesses(hits+misses) (Count)
system.cpu.dcache.SwapReq.accesses::total          100                       # number of SwapReq accesses(hits+misses) (Count)
system.cpu.dcache.SwapReq.missRate::cpu.data     0.060000                       # miss rate for SwapReq accesses (Ratio)
system.cpu.dcache.SwapReq.missRate::total     0.060000                       # miss rate for SwapReq accesses (Ratio)
system.cpu.dcache.SwapReq.avgMissLatency::cpu.data        40000                       # average SwapReq miss latency ((Tick/Count))
system.cpu.dcache.SwapReq.avgMissLatency::total        40000                       # average SwapReq miss latency ((Tick/Count))
system.cpu.dcache.SwapReq.mshrMisses::cpu.data            6                       # number of SwapReq MSHR misses (Count)
system.cpu.dcache.SwapReq.mshrMisses::total            6                       # number of SwapReq MSHR misses (Count)
system.cpu.dcache.SwapReq.mshrMissLatency::cpu.data       234000                       # number of SwapReq MSHR miss ticks (Tick)
system.cpu.dcache.SwapReq.mshrMissLatency::total       234000                       # number of SwapReq MSHR miss ticks (Tick)
system.cpu.dcache.SwapReq.mshrMissRate::cpu.data     0.060000                       # mshr miss rate for SwapReq accesses (Ratio)
system.cpu.dcache.SwapReq.mshrMissRate::total     0.060000                       # mshr miss rate for SwapReq accesses (Ratio)
system.cpu.dcache.SwapReq.avgMshrMissLatency::cpu.data        39000                       # average SwapReq mshr miss latency ((Tick/Count))
system.cpu.dcache.SwapReq.avgMshrMissLatency::total        39000                       # average SwapReq mshr miss latency ((Tick/Count))
system.cpu.dcache.WriteLineReq.misses::cpu.data          131                       # number of WriteLineReq misses (Count)
system.cpu.dcache.WriteLineReq.misses::total          131                       # number of WriteLineReq misses (Count)
system.cpu.dcache.WriteLineReq.missLatency::cpu.data      4173908                       # number of WriteLineReq miss ticks (Tick)
system.cpu.dcache.WriteLineReq.missLatency::total      4173908                       # number of WriteLineReq miss ticks (Tick)
system.cpu.dcache.WriteLineReq.accesses::cpu.data          131                       # number of WriteLineReq accesses(hits+misses) (Count)
system.cpu.dcache.WriteLineReq.accesses::total          131                       # number of WriteLineReq accesses(hits+misses) (Count)
system.cpu.dcache.WriteLineReq.missRate::cpu.data            1                       # miss rate for WriteLineReq accesses (Ratio)
system.cpu.dcache.WriteLineReq.missRate::total            1                       # miss rate for WriteLineReq accesses (Ratio)
system.cpu.dcache.WriteLineReq.avgMissLatency::cpu.data 31861.893130                       # average WriteLineReq miss latency ((Tick/Count))
system.cpu.dcache.WriteLineReq.avgMissLatency::total 31861.893130                       # average WriteLineReq miss latency ((Tick/Count))
system.cpu.dcache.WriteLineReq.mshrMisses::cpu.data          131                       # number of WriteLineReq MSHR misses (Count)
system.cpu.dcache.WriteLineReq.mshrMisses::total          131                       # number of WriteLineReq MSHR misses (Count)
system.cpu.dcache.WriteLineReq.mshrMissLatency::cpu.data      4042908                       # number of WriteLineReq MSHR miss ticks (Tick)
system.cpu.dcache.WriteLineReq.mshrMissLatency::total      4042908                       # number of WriteLineReq MSHR miss ticks (Tick)
system.cpu.dcache.WriteLineReq.mshrMissRate::cpu.data            1                       # mshr miss rate for WriteLineReq accesses (Ratio)
system.cpu.dcache.WriteLineReq.mshrMissRate::total            1                       # mshr miss rate for WriteLineReq accesses (Ratio)
system.cpu.dcache.WriteLineReq.avgMshrMissLatency::cpu.data 30861.893130                       # average WriteLineReq mshr miss latency ((Tick/Count))
system.cpu.dcache.WriteLineReq.avgMshrMissLatency::total 30861.893130                       # average WriteLineReq mshr miss latency ((Tick/Count))
system.cpu.dcache.WriteReq.hits::cpu.data       795363                       # number of WriteReq hits (Count)
system.cpu.dcache.WriteReq.hits::total         795363                       # number of WriteReq hits (Count)
system.cpu.dcache.WriteReq.misses::cpu.data         5585                       # number of WriteReq misses (Count)
system.cpu.dcache.WriteReq.misses::total         5585                       # number of WriteReq misses (Count)
system.cpu.dcache.WriteReq.missLatency::cpu.data    333882073                       # number of WriteReq miss ticks (Tick)
system.cpu.dcache.WriteReq.missLatency::total    333882073                       # number of WriteReq miss ticks (Tick)
system.cpu.dcache.WriteReq.accesses::cpu.data       800948                       # number of WriteReq accesses(hits+misses) (Count)
system.cpu.dcache.WriteReq.accesses::total       800948                       # number of WriteReq accesses(hits+misses) (Count)
system.cpu.dcache.WriteReq.missRate::cpu.data     0.006973                       # miss rate for WriteReq accesses (Ratio)
system.cpu.dcache.WriteReq.missRate::total     0.006973                       # miss rate for WriteReq accesses (Ratio)
system.cpu.dcache.WriteReq.avgMissLatency::cpu.data 59781.928917                       # average WriteReq miss latency ((Tick/Count))
system.cpu.dcache.WriteReq.avgMissLatency::total 59781.928917                       # average WriteReq miss latency ((Tick/Count))
system.cpu.dcache.WriteReq.mshrHits::cpu.data         3461                       # number of WriteReq MSHR hits (Count)
system.cpu.dcache.WriteReq.mshrHits::total         3461                       # number of WriteReq MSHR hits (Count)
system.cpu.dcache.WriteReq.mshrMisses::cpu.data         2124                       # number of WriteReq MSHR misses (Count)
system.cpu.dcache.WriteReq.mshrMisses::total         2124                       # number of WriteReq MSHR misses (Count)
system.cpu.dcache.WriteReq.mshrMissLatency::cpu.data    130831288                       # number of WriteReq MSHR miss ticks (Tick)
system.cpu.dcache.WriteReq.mshrMissLatency::total    130831288                       # number of WriteReq MSHR miss ticks (Tick)
system.cpu.dcache.WriteReq.mshrMissRate::cpu.data     0.002652                       # mshr miss rate for WriteReq accesses (Ratio)
system.cpu.dcache.WriteReq.mshrMissRate::total     0.002652                       # mshr miss rate for WriteReq accesses (Ratio)
system.cpu.dcache.WriteReq.avgMshrMissLatency::cpu.data 61596.651601                       # average WriteReq mshr miss latency ((Tick/Count))
system.cpu.dcache.WriteReq.avgMshrMissLatency::total 61596.651601                       # average WriteReq mshr miss latency ((Tick/Count))
system.cpu.dcache.power_state.pwrStateResidencyTicks::UNDEFINED   2385895000                       # Cumulative time (in ticks) in various power states (Tick)
system.cpu.dcache.tags.tagsInUse          1008.420005                       # Average ticks per tags in use ((Tick/Count))
system.cpu.dcache.tags.totalRefs              2484816                       # Total number of references to valid blocks. (Count)
system.cpu.dcache.tags.sampledRefs              35583                       # Sample count of references to valid blocks. (Count)
system.cpu.dcache.tags.avgRefs              69.831549                       # Average number of references to valid blocks. ((Count/Count))
system.cpu.dcache.tags.warmupTick              253500                       # The tick when the warmup percentage was hit. (Tick)
system.cpu.dcache.tags.occupancies::cpu.data  1008.420005                       # Average occupied blocks per tick, per requestor ((Count/Tick))
system.cpu.dcache.tags.avgOccs::cpu.data     0.984785                       # Average percentage of cache occupancy ((Ratio/Tick))
system.cpu.dcache.tags.avgOccs::total        0.984785                       # Average percentage of cache occupancy ((Ratio/Tick))
system.cpu.dcache.tags.occupanciesTaskId::1024         1024                       # Occupied blocks per task id (Count)
system.cpu.dcache.tags.ageTaskId_1024::0           96                       # Occupied blocks per task id, per block age (Count)
system.cpu.dcache.tags.ageTaskId_1024::1          905                       # Occupied blocks per task id, per block age (Count)
system.cpu.dcache.tags.ageTaskId_1024::2           20                       # Occupied blocks per task id, per block age (Count)
system.cpu.dcache.tags.ageTaskId_1024::3            3                       # Occupied blocks per task id, per block age (Count)
system.cpu.dcache.tags.ratioOccsTaskId::1024            1                       # Ratio of occupied blocks and all blocks, per task id (Ratio)
system.cpu.dcache.tags.tagAccesses           10195587                       # Number of tag accesses (Count)
system.cpu.dcache.tags.dataAccesses          10195587                       # Number of data accesses (Count)
system.cpu.dcache.tags.power_state.pwrStateResidencyTicks::UNDEFINED   2385895000                       # Cumulative time (in ticks) in various power states (Tick)
system.cpu.decode.idleCycles                   897361                       # Number of cycles decode is idle (Cycle)
system.cpu.decode.blockedCycles               1586926                       # Number of cycles decode is blocked (Cycle)
system.cpu.decode.runCycles                   2005916                       # Number of cycles decode is running (Cycle)
system.cpu.decode.unblockCycles                118024                       # Number of cycles decode is unblocking (Cycle)
system.cpu.decode.squashCycles                  17185                       # Number of cycles decode is squashing (Cycle)
system.cpu.decode.branchResolved               267108                       # Number of times decode resolved a branch (Count)
system.cpu.decode.branchMispred                   832                       # Number of times decode detected a branch misprediction (Count)
system.cpu.decode.decodedInsts               14254150                       # Number of instructions handled by decode (Count)
system.cpu.decode.squashedInsts                  2837                       # Number of squashed instructions handled by decode (Count)
system.cpu.fetch.icacheStallCycles            1025416                       # Number of cycles fetch is stalled on an Icache miss (Cycle)
system.cpu.fetch.insts                       13461229                       # Number of instructions fetch has processed (Count)
system.cpu.fetch.branches                     1279523                       # Number of branches that fetch encountered (Count)
system.cpu.fetch.predictedBranches             309069                       # Number of branches that fetch has predicted taken (Count)
system.cpu.fetch.cycles                       3576679                       # Number of cycles fetch has run and was not squashing or blocked (Cycle)
system.cpu.fetch.squashCycles                   36000                       # Number of cycles fetch has spent squashing (Cycle)
system.cpu.fetch.miscStallCycles                  702                       # Number of cycles fetch has spent waiting on interrupts, or bad addresses, or out of MSHRs (Cycle)
system.cpu.fetch.pendingTrapStallCycles          4541                       # Number of stall cycles due to pending traps (Cycle)
system.cpu.fetch.icacheWaitRetryStallCycles           74                       # Number of stall cycles due to full MSHR (Cycle)
system.cpu.fetch.cacheLines                    974116                       # Number of cache lines fetched (Count)
system.cpu.fetch.icacheSquashes                  5051                       # Number of outstanding Icache misses that were squashed (Count)
system.cpu.fetch.nisnDist::samples            4625412                       # Number of instructions fetched each cycle (Total) (Count)
system.cpu.fetch.nisnDist::mean              3.126236                       # Number of instructions fetched each cycle (Total) (Count)
system.cpu.fetch.nisnDist::stdev             3.629430                       # Number of instructions fetched each cycle (Total) (Count)
system.cpu.fetch.nisnDist::underflows               0      0.00%      0.00% # Number of instructions fetched each cycle (Total) (Count)
system.cpu.fetch.nisnDist::0                  2358954     51.00%     51.00% # Number of instructions fetched each cycle (Total) (Count)
system.cpu.fetch.nisnDist::1                    56621      1.22%     52.22% # Number of instructions fetched each cycle (Total) (Count)
system.cpu.fetch.nisnDist::2                   352882      7.63%     59.85% # Number of instructions fetched each cycle (Total) (Count)
system.cpu.fetch.nisnDist::3                    79533      1.72%     61.57% # Number of instructions fetched each cycle (Total) (Count)
system.cpu.fetch.nisnDist::4                    55513      1.20%     62.77% # Number of instructions fetched each cycle (Total) (Count)
system.cpu.fetch.nisnDist::5                   139766      3.02%     65.79% # Number of instructions fetched each cycle (Total) (Count)
system.cpu.fetch.nisnDist::6                    47477      1.03%     66.82% # Number of instructions fetched each cycle (Total) (Count)
system.cpu.fetch.nisnDist::7                    23926      0.52%     67.34% # Number of instructions fetched each cycle (Total) (Count)
system.cpu.fetch.nisnDist::8                  1510740     32.66%    100.00% # Number of instructions fetched each cycle (Total) (Count)
system.cpu.fetch.nisnDist::overflows                0      0.00%    100.00% # Number of instructions fetched each cycle (Total) (Count)
system.cpu.fetch.nisnDist::min_value                0                       # Number of instructions fetched each cycle (Total) (Count)
system.cpu.fetch.nisnDist::max_value                8                       # Number of instructions fetched each cycle (Total) (Count)
system.cpu.fetch.nisnDist::total              4625412                       # Number of instructions fetched each cycle (Total) (Count)
system.cpu.fetch.branchRate                  0.268143                       # Number of branch fetches per cycle (Ratio)
system.cpu.fetch.rate                        2.821001                       # Number of inst fetches per cycle ((Count/Cycle))
system.cpu.icache.demandHits::cpu.inst         971348                       # number of demand (read+write) hits (Count)
system.cpu.icache.demandHits::total            971348                       # number of demand (read+write) hits (Count)
system.cpu.icache.overallHits::cpu.inst        971348                       # number of overall hits (Count)
system.cpu.icache.overallHits::total           971348                       # number of overall hits (Count)
system.cpu.icache.demandMisses::cpu.inst         2768                       # number of demand (read+write) misses (Count)
system.cpu.icache.demandMisses::total            2768                       # number of demand (read+write) misses (Count)
system.cpu.icache.overallMisses::cpu.inst         2768                       # number of overall misses (Count)
system.cpu.icache.overallMisses::total           2768                       # number of overall misses (Count)
system.cpu.icache.demandMissLatency::cpu.inst    184072998                       # number of demand (read+write) miss ticks (Tick)
system.cpu.icache.demandMissLatency::total    184072998                       # number of demand (read+write) miss ticks (Tick)
system.cpu.icache.overallMissLatency::cpu.inst    184072998                       # number of overall miss ticks (Tick)
system.cpu.icache.overallMissLatency::total    184072998                       # number of overall miss ticks (Tick)
system.cpu.icache.demandAccesses::cpu.inst       974116                       # number of demand (read+write) accesses (Count)
system.cpu.icache.demandAccesses::total        974116                       # number of demand (read+write) accesses (Count)
system.cpu.icache.overallAccesses::cpu.inst       974116                       # number of overall (read+write) accesses (Count)
system.cpu.icache.overallAccesses::total       974116                       # number of overall (read+write) accesses (Count)
system.cpu.icache.demandMissRate::cpu.inst     0.002842                       # miss rate for demand accesses (Ratio)
system.cpu.icache.demandMissRate::total      0.002842                       # miss rate for demand accesses (Ratio)
system.cpu.icache.overallMissRate::cpu.inst     0.002842                       # miss rate for overall accesses (Ratio)
system.cpu.icache.overallMissRate::total     0.002842                       # miss rate for overall accesses (Ratio)
system.cpu.icache.demandAvgMissLatency::cpu.inst 66500.360549                       # average overall miss latency in ticks ((Tick/Count))
system.cpu.icache.demandAvgMissLatency::total 66500.360549                       # average overall miss latency in ticks ((Tick/Count))
system.cpu.icache.overallAvgMissLatency::cpu.inst 66500.360549                       # average overall miss latency ((Tick/Count))
system.cpu.icache.overallAvgMissLatency::total 66500.360549                       # average overall miss latency ((Tick/Count))
system.cpu.icache.blockedCycles::no_mshrs         1074                       # number of cycles access was blocked (Cycle)
system.cpu.icache.blockedCycles::no_targets            0                       # number of cycles access was blocked (Cycle)
system.cpu.icache.blockedCauses::no_mshrs           17                       # number of times access was blocked (Count)
system.cpu.icache.blockedCauses::no_targets            0                       # number of times access was blocked (Count)
system.cpu.icache.avgBlocked::no_mshrs      63.176471                       # average number of cycles each access was blocked ((Cycle/Count))
system.cpu.icache.avgBlocked::no_targets          nan                       # average number of cycles each access was blocked ((Cycle/Count))
system.cpu.icache.writebacks::writebacks         1906                       # number of writebacks (Count)
system.cpu.icache.writebacks::total              1906                       # number of writebacks (Count)
system.cpu.icache.demandMshrHits::cpu.inst          605                       # number of demand (read+write) MSHR hits (Count)
system.cpu.icache.demandMshrHits::total           605                       # number of demand (read+write) MSHR hits (Count)
system.cpu.icache.overallMshrHits::cpu.inst          605                       # number of overall MSHR hits (Count)
system.cpu.icache.overallMshrHits::total          605                       # number of overall MSHR hits (Count)
system.cpu.icache.demandMshrMisses::cpu.inst         2163                       # number of demand (read+write) MSHR misses (Count)
system.cpu.icache.demandMshrMisses::total         2163                       # number of demand (read+write) MSHR misses (Count)
system.cpu.icache.overallMshrMisses::cpu.inst         2163                       # number of overall MSHR misses (Count)
system.cpu.icache.overallMshrMisses::total         2163                       # number of overall MSHR misses (Count)
system.cpu.icache.demandMshrMissLatency::cpu.inst    145085499                       # number of demand (read+write) MSHR miss ticks (Tick)
system.cpu.icache.demandMshrMissLatency::total    145085499                       # number of demand (read+write) MSHR miss ticks (Tick)
system.cpu.icache.overallMshrMissLatency::cpu.inst    145085499                       # number of overall MSHR miss ticks (Tick)
system.cpu.icache.overallMshrMissLatency::total    145085499                       # number of overall MSHR miss ticks (Tick)
system.cpu.icache.demandMshrMissRate::cpu.inst     0.002220                       # mshr miss ratio for demand accesses (Ratio)
system.cpu.icache.demandMshrMissRate::total     0.002220                       # mshr miss ratio for demand accesses (Ratio)
system.cpu.icache.overallMshrMissRate::cpu.inst     0.002220                       # mshr miss ratio for overall accesses (Ratio)
system.cpu.icache.overallMshrMissRate::total     0.002220                       # mshr miss ratio for overall accesses (Ratio)
system.cpu.icache.demandAvgMshrMissLatency::cpu.inst 67076.051318                       # average overall mshr miss latency ((Tick/Count))
system.cpu.icache.demandAvgMshrMissLatency::total 67076.051318                       # average overall mshr miss latency ((Tick/Count))
system.cpu.icache.overallAvgMshrMissLatency::cpu.inst 67076.051318                       # average overall mshr miss latency ((Tick/Count))
system.cpu.icache.overallAvgMshrMissLatency::total 67076.051318                       # average overall mshr miss latency ((Tick/Count))
system.cpu.icache.replacements                   1906                       # number of replacements (Count)
system.cpu.icache.ReadReq.hits::cpu.inst       971348                       # number of ReadReq hits (Count)
system.cpu.icache.ReadReq.hits::total          971348                       # number of ReadReq hits (Count)
system.cpu.icache.ReadReq.misses::cpu.inst         2768                       # number of ReadReq misses (Count)
system.cpu.icache.ReadReq.misses::total          2768                       # number of ReadReq misses (Count)
system.cpu.icache.ReadReq.missLatency::cpu.inst    184072998                       # number of ReadReq miss ticks (Tick)
system.cpu.icache.ReadReq.missLatency::total    184072998                       # number of ReadReq miss ticks (Tick)
system.cpu.icache.ReadReq.accesses::cpu.inst       974116                       # number of ReadReq accesses(hits+misses) (Count)
system.cpu.icache.ReadReq.accesses::total       974116                       # number of ReadReq accesses(hits+misses) (Count)
system.cpu.icache.ReadReq.missRate::cpu.inst     0.002842                       # miss rate for ReadReq accesses (Ratio)
system.cpu.icache.ReadReq.missRate::total     0.002842                       # miss rate for ReadReq accesses (Ratio)
system.cpu.icache.ReadReq.avgMissLatency::cpu.inst 66500.360549                       # average ReadReq miss latency ((Tick/Count))
system.cpu.icache.ReadReq.avgMissLatency::total 66500.360549                       # average ReadReq miss latency ((Tick/Count))
system.cpu.icache.ReadReq.mshrHits::cpu.inst          605                       # number of ReadReq MSHR hits (Count)
system.cpu.icache.ReadReq.mshrHits::total          605                       # number of ReadReq MSHR hits (Count)
system.cpu.icache.ReadReq.mshrMisses::cpu.inst         2163                       # number of ReadReq MSHR misses (Count)
system.cpu.icache.ReadReq.mshrMisses::total         2163                       # number of ReadReq MSHR misses (Count)
system.cpu.icache.ReadReq.mshrMissLatency::cpu.inst    145085499                       # number of ReadReq MSHR miss ticks (Tick)
system.cpu.icache.ReadReq.mshrMissLatency::total    145085499                       # number of ReadReq MSHR miss ticks (Tick)
system.cpu.icache.ReadReq.mshrMissRate::cpu.inst     0.002220                       # mshr miss rate for ReadReq accesses (Ratio)
system.cpu.icache.ReadReq.mshrMissRate::total     0.002220                       # mshr miss rate for ReadReq accesses (Ratio)
system.cpu.icache.ReadReq.avgMshrMissLatency::cpu.inst 67076.051318                       # average ReadReq mshr miss latency ((Tick/Count))
system.cpu.icache.ReadReq.avgMshrMissLatency::total 67076.051318                       # average ReadReq mshr miss latency ((Tick/Count))
system.cpu.icache.power_state.pwrStateResidencyTicks::UNDEFINED   2385895000                       # Cumulative time (in ticks) in various power states (Tick)
system.cpu.icache.tags.tagsInUse           254.374230                       # Average ticks per tags in use ((Tick/Count))
system.cpu.icache.tags.totalRefs               973510                       # Total number of references to valid blocks. (Count)
system.cpu.icache.tags.sampledRefs               2162                       # Sample count of references to valid blocks. (Count)
system.cpu.icache.tags.avgRefs             450.282146                       # Average number of references to valid blocks. ((Count/Count))
system.cpu.icache.tags.warmupTick               87500                       # The tick when the warmup percentage was hit. (Tick)
system.cpu.icache.tags.occupancies::cpu.inst   254.374230                       # Average occupied blocks per tick, per requestor ((Count/Tick))
system.cpu.icache.tags.avgOccs::cpu.inst     0.993649                       # Average percentage of cache occupancy ((Ratio/Tick))
system.cpu.icache.tags.avgOccs::total        0.993649                       # Average percentage of cache occupancy ((Ratio/Tick))
system.cpu.icache.tags.occupanciesTaskId::1024          256                       # Occupied blocks per task id (Count)
system.cpu.icache.tags.ageTaskId_1024::0           81                       # Occupied blocks per task id, per block age (Count)
system.cpu.icache.tags.ageTaskId_1024::1          113                       # Occupied blocks per task id, per block age (Count)
system.cpu.icache.tags.ageTaskId_1024::3           62                       # Occupied blocks per task id, per block age (Count)
system.cpu.icache.tags.ratioOccsTaskId::1024            1                       # Ratio of occupied blocks and all blocks, per task id (Ratio)
system.cpu.icache.tags.tagAccesses            3898626                       # Number of tag accesses (Count)
system.cpu.icache.tags.dataAccesses           3898626                       # Number of data accesses (Count)
system.cpu.icache.tags.power_state.pwrStateResidencyTicks::UNDEFINED   2385895000                       # Cumulative time (in ticks) in various power states (Tick)
system.cpu.iew.idleCycles                           0                       # Number of cycles IEW is idle (Cycle)
system.cpu.iew.squashCycles                     17185                       # Number of cycles IEW is squashing (Cycle)
system.cpu.iew.blockCycles                     927714                       # Number of cycles IEW is blocking (Cycle)
system.cpu.iew.unblockCycles                    45794                       # Number of cycles IEW is unblocking (Cycle)
system.cpu.iew.dispatchedInsts               14094979                       # Number of instructions dispatched to IQ (Count)
system.cpu.iew.dispSquashedInsts                 2423                       # Number of squashed instructions skipped by dispatch (Count)
system.cpu.iew.dispLoadInsts                  2079254                       # Number of dispatched load instructions (Count)
system.cpu.iew.dispStoreInsts                  840023                       # Number of dispatched store instructions (Count)
system.cpu.iew.dispNonSpecInsts                   381                       # Number of dispatched non-speculative instructions (Count)
system.cpu.iew.iqFullEvents                     13311                       # Number of times the IQ has become full, causing a stall (Count)
system.cpu.iew.lsqFullEvents                    28574                       # Number of times the LSQ has become full, causing a stall (Count)
system.cpu.iew.memOrderViolationEvents            382                       # Number of memory order violations (Count)
system.cpu.iew.predictedTakenIncorrect           8256                       # Number of branches that were predicted taken incorrectly (Count)
system.cpu.iew.predictedNotTakenIncorrect        10770                       # Number of branches that were predicted not taken incorrectly (Count)
system.cpu.iew.branchMispredicts                19026                       # Number of branch mispredicts detected at execute (Count)
system.cpu.iew.instsToCommit                 13809743                       # Cumulative count of insts sent to commit (Count)
system.cpu.iew.writebackCount                13799194                       # Cumulative count of insts written-back (Count)
system.cpu.iew.producerInst                  11298763                       # Number of instructions producing a value (Count)
system.cpu.iew.consumerInst                  15675231                       # Number of instructions consuming a value (Count)
system.cpu.iew.wbRate                        2.891827                       # Insts written-back per cycle ((Count/Cycle))
system.cpu.iew.wbFanout                      0.720804                       # Average fanout of values written-back ((Count/Count))
system.cpu.lsq0.forwLoads                      309009                       # Number of loads that had data forwarded from stores (Count)
system.cpu.lsq0.squashedLoads                  112865                       # Number of loads squashed (Count)
system.cpu.lsq0.ignoredResponses                   45                       # Number of memory responses ignored because the instruction is squashed (Count)
system.cpu.lsq0.memOrderViolation                 382                       # Number of memory ordering violations (Count)
system.cpu.lsq0.squashedStores                  38858                       # Number of stores squashed (Count)
system.cpu.lsq0.rescheduledLoads                 9300                       # Number of loads that were rescheduled (Count)
system.cpu.lsq0.blockedByCache                   2016                       # Number of times an access to memory failed due to the cache being blocked (Count)
system.cpu.lsq0.loadToUse::samples            1966389                       # Distribution of cycle latency between the first time a load is issued and its completion (Unspecified)
system.cpu.lsq0.loadToUse::mean              7.485941                       # Distribution of cycle latency between the first time a load is issued and its completion (Unspecified)
system.cpu.lsq0.loadToUse::stdev            29.409270                       # Distribution of cycle latency between the first time a load is issued and its completion (Unspecified)
system.cpu.lsq0.loadToUse::0-9                1889410     96.09%     96.09% # Distribution of cycle latency between the first time a load is issued and its completion (Unspecified)
system.cpu.lsq0.loadToUse::10-19                 2812      0.14%     96.23% # Distribution of cycle latency between the first time a load is issued and its completion (Unspecified)
system.cpu.lsq0.loadToUse::20-29                24335      1.24%     97.47% # Distribution of cycle latency between the first time a load is issued and its completion (Unspecified)
system.cpu.lsq0.loadToUse::30-39                 4632      0.24%     97.70% # Distribution of cycle latency between the first time a load is issued and its completion (Unspecified)
system.cpu.lsq0.loadToUse::40-49                  888      0.05%     97.75% # Distribution of cycle latency between the first time a load is issued and its completion (Unspecified)
[...]
system.mem_ctrls.dram.perBankWrBursts::10           86                       # Per bank write bursts (Count)
system.mem_ctrls.dram.perBankWrBursts::11          109                       # Per bank write bursts (Count)
system.mem_ctrls.dram.perBankWrBursts::12           62                       # Per bank write bursts (Count)
system.mem_ctrls.dram.perBankWrBursts::13          127                       # Per bank write bursts (Count)
system.mem_ctrls.dram.perBankWrBursts::14           43                       # Per bank write bursts (Count)
system.mem_ctrls.dram.perBankWrBursts::15          117                       # Per bank write bursts (Count)
system.mem_ctrls.dram.totQLat               187312750                       # Total ticks spent queuing (Tick)
system.mem_ctrls.dram.totBusLat              77630000                       # Total ticks spent in databus transfers (Tick)
system.mem_ctrls.dram.totMemAccLat          478425250                       # Total ticks spent from burst creation until serviced by the DRAM (Tick)
system.mem_ctrls.dram.avgQLat                12064.46                       # Average queueing delay per DRAM burst ((Tick/Count))
system.mem_ctrls.dram.avgBusLat               5000.00                       # Average bus latency per DRAM burst ((Tick/Count))
system.mem_ctrls.dram.avgMemAccLat           30814.46                       # Average memory access latency per DRAM burst ((Tick/Count))
system.mem_ctrls.dram.readRowHits               11303                       # Number of row buffer hits during reads (Count)
system.mem_ctrls.dram.writeRowHits               1213                       # Number of row buffer hits during writes (Count)
system.mem_ctrls.dram.readRowHitRate            72.80                       # Row buffer hit rate for reads (Ratio)
system.mem_ctrls.dram.writeRowHitRate           74.46                       # Row buffer hit rate for writes (Ratio)
system.mem_ctrls.dram.bytesPerActivate::samples         4627                       # Bytes accessed per row activation (Byte)
system.mem_ctrls.dram.bytesPerActivate::mean   236.981197                       # Bytes accessed per row activation (Byte)
system.mem_ctrls.dram.bytesPerActivate::gmean   144.788358                       # Bytes accessed per row activation (Byte)
system.mem_ctrls.dram.bytesPerActivate::stdev   280.426360                       # Bytes accessed per row activation (Byte)
system.mem_ctrls.dram.bytesPerActivate::0-127         2015     43.55%     43.55% # Bytes accessed per row activation (Byte)
system.mem_ctrls.dram.bytesPerActivate::128-255         1336     28.87%     72.42% # Bytes accessed per row activation (Byte)
system.mem_ctrls.dram.bytesPerActivate::256-383          405      8.75%     81.18% # Bytes accessed per row activation (Byte)
system.mem_ctrls.dram.bytesPerActivate::384-511          217      4.69%     85.87% # Bytes accessed per row activation (Byte)
system.mem_ctrls.dram.bytesPerActivate::512-639          109      2.36%     88.22% # Bytes accessed per row activation (Byte)
system.mem_ctrls.dram.bytesPerActivate::640-767           86      1.86%     90.08% # Bytes accessed per row activation (Byte)
system.mem_ctrls.dram.bytesPerActivate::768-895           70      1.51%     91.59% # Bytes accessed per row activation (Byte)
system.mem_ctrls.dram.bytesPerActivate::896-1023           46      0.99%     92.59% # Bytes accessed per row activation (Byte)
system.mem_ctrls.dram.bytesPerActivate::1024-1151          343      7.41%    100.00% # Bytes accessed per row activation (Byte)
system.mem_ctrls.dram.bytesPerActivate::total         4627                       # Bytes accessed per row activation (Byte)
system.mem_ctrls.dram.bytesRead                993664                       # Total bytes read (Byte)
system.mem_ctrls.dram.bytesWritten             104256                       # Total bytes written (Byte)
system.mem_ctrls.dram.avgRdBW              416.474321                       # Average DRAM read bandwidth in MiBytes/s ((Byte/Second))
system.mem_ctrls.dram.avgWrBW               43.696810                       # Average DRAM write bandwidth in MiBytes/s ((Byte/Second))
system.mem_ctrls.dram.peakBW                 12800.00                       # Theoretical peak bandwidth in MiByte/s ((Byte/Second))
system.mem_ctrls.dram.busUtil                    3.60                       # Data bus utilization in percentage (Ratio)
system.mem_ctrls.dram.busUtilRead                3.25                       # Data bus utilization in percentage for reads (Ratio)
system.mem_ctrls.dram.busUtilWrite               0.34                       # Data bus utilization in percentage for writes (Ratio)
system.mem_ctrls.dram.pageHitRate               72.96                       # Row buffer hit rate, read and write combined (Ratio)
system.mem_ctrls.dram.power_state.pwrStateResidencyTicks::UNDEFINED   2385895000                       # Cumulative time (in ticks) in various power states (Tick)
system.mem_ctrls.dram.rank0.actEnergy        17328780                       # Energy for activate commands per rank (pJ) (Joule)
system.mem_ctrls.dram.rank0.preEnergy         9183900                       # Energy for precharge commands per rank (pJ) (Joule)
system.mem_ctrls.dram.rank0.readEnergy       55870500                       # Energy for read commands per rank (pJ) (Joule)
system.mem_ctrls.dram.rank0.writeEnergy       4854600                       # Energy for write commands per rank (pJ) (Joule)
system.mem_ctrls.dram.rank0.refreshEnergy 188079840.000000                       # Energy for refresh commands per rank (pJ) (Joule)
system.mem_ctrls.dram.rank0.actBackEnergy    554645910                       # Energy for active background per rank (pJ) (Joule)
system.mem_ctrls.dram.rank0.preBackEnergy    449113440                       # Energy for precharge background per rank (pJ) (Joule)
system.mem_ctrls.dram.rank0.actPowerDownEnergy            0                       # Energy for active power-down per rank (pJ) (Joule)
system.mem_ctrls.dram.rank0.prePowerDownEnergy            0                       # Energy for precharge power-down per rank (pJ) (Joule)
system.mem_ctrls.dram.rank0.selfRefreshEnergy            0                       # Energy for self refresh per rank (pJ) (Joule)
system.mem_ctrls.dram.rank0.totalEnergy    1279076970                       # Total energy per rank (pJ) (Joule)
system.mem_ctrls.dram.rank0.averagePower   536.099439                       # Core power per rank (mW) (Watt)
system.mem_ctrls.dram.rank0.totalIdleTime            0                       # Total Idle time Per DRAM Rank (Tick)
system.mem_ctrls.dram.rank0.pwrStateTime::IDLE   1162453000                       # Time in different power states (Tick)
system.mem_ctrls.dram.rank0.pwrStateTime::REF     79560000                       # Time in different power states (Tick)
system.mem_ctrls.dram.rank0.pwrStateTime::SREF            0                       # Time in different power states (Tick)
system.mem_ctrls.dram.rank0.pwrStateTime::PRE_PDN            0                       # Time in different power states (Tick)
system.mem_ctrls.dram.rank0.pwrStateTime::ACT   1143882000                       # Time in different power states (Tick)
system.mem_ctrls.dram.rank0.pwrStateTime::ACT_PDN            0                       # Time in different power states (Tick)
system.mem_ctrls.dram.rank1.actEnergy        15793680                       # Energy for activate commands per rank (pJ) (Joule)
system.mem_ctrls.dram.rank1.preEnergy         8375565                       # Energy for precharge commands per rank (pJ) (Joule)
system.mem_ctrls.dram.rank1.readEnergy       54985140                       # Energy for read commands per rank (pJ) (Joule)
system.mem_ctrls.dram.rank1.writeEnergy       3648780                       # Energy for write commands per rank (pJ) (Joule)
system.mem_ctrls.dram.rank1.refreshEnergy 188079840.000000                       # Energy for refresh commands per rank (pJ) (Joule)
system.mem_ctrls.dram.rank1.actBackEnergy    551461320                       # Energy for active background per rank (pJ) (Joule)
system.mem_ctrls.dram.rank1.preBackEnergy    451795200                       # Energy for precharge background per rank (pJ) (Joule)
system.mem_ctrls.dram.rank1.actPowerDownEnergy            0                       # Energy for active power-down per rank (pJ) (Joule)
system.mem_ctrls.dram.rank1.prePowerDownEnergy            0                       # Energy for precharge power-down per rank (pJ) (Joule)
system.mem_ctrls.dram.rank1.selfRefreshEnergy            0                       # Energy for self refresh per rank (pJ) (Joule)
system.mem_ctrls.dram.rank1.totalEnergy    1274139525                       # Total energy per rank (pJ) (Joule)
system.mem_ctrls.dram.rank1.averagePower   534.030008                       # Core power per rank (mW) (Watt)
system.mem_ctrls.dram.rank1.totalIdleTime            0                       # Total Idle time Per DRAM Rank (Tick)
system.mem_ctrls.dram.rank1.pwrStateTime::IDLE   1169606250                       # Time in different power states (Tick)
system.mem_ctrls.dram.rank1.pwrStateTime::REF     79560000                       # Time in different power states (Tick)
system.mem_ctrls.dram.rank1.pwrStateTime::SREF            0                       # Time in different power states (Tick)
system.mem_ctrls.dram.rank1.pwrStateTime::PRE_PDN            0                       # Time in different power states (Tick)
system.mem_ctrls.dram.rank1.pwrStateTime::ACT   1136728750                       # Time in different power states (Tick)
system.mem_ctrls.dram.rank1.pwrStateTime::ACT_PDN            0                       # Time in different power states (Tick)
system.mem_ctrls.power_state.pwrStateResidencyTicks::UNDEFINED   2385895000                       # Cumulative time (in ticks) in various power states (Tick)
system.membus.transDist::ReadResp               14077                       # Transaction distribution (Count)
system.membus.transDist::WritebackDirty          1648                       # Transaction distribution (Count)
system.membus.transDist::CleanEvict              9892                       # Transaction distribution (Count)
system.membus.transDist::ReadExReq               1467                       # Transaction distribution (Count)
system.membus.transDist::ReadExResp              1467                       # Transaction distribution (Count)
system.membus.transDist::ReadSharedReq          14077                       # Transaction distribution (Count)
system.membus.transDist::InvalidateReq            139                       # Transaction distribution (Count)
system.membus.pktCount_system.l2.mem_side_port::system.mem_ctrls.port        42767                       # Packet count per connected requestor and responder (Count)
system.membus.pktCount::total                   42767                       # Packet count per connected requestor and responder (Count)
system.membus.pktSize_system.l2.mem_side_port::system.mem_ctrls.port      1100288                       # Cumulative packet size per connected requestor and responder (Byte)
system.membus.pktSize::total                  1100288                       # Cumulative packet size per connected requestor and responder (Byte)
system.membus.snoops                                0                       # Total snoops (Count)
system.membus.snoopTraffic                          0                       # Total snoop traffic (Byte)
system.membus.snoopFanout::samples              15683                       # Request fanout histogram (Count)
system.membus.snoopFanout::mean                     0                       # Request fanout histogram (Count)
system.membus.snoopFanout::stdev                    0                       # Request fanout histogram (Count)
system.membus.snoopFanout::underflows               0      0.00%      0.00% # Request fanout histogram (Count)
system.membus.snoopFanout::0                    15683    100.00%    100.00% # Request fanout histogram (Count)
system.membus.snoopFanout::1                        0      0.00%    100.00% # Request fanout histogram (Count)
system.membus.snoopFanout::overflows                0      0.00%    100.00% # Request fanout histogram (Count)
system.membus.snoopFanout::min_value                0                       # Request fanout histogram (Count)
system.membus.snoopFanout::max_value                0                       # Request fanout histogram (Count)
system.membus.snoopFanout::total                15683                       # Request fanout histogram (Count)
system.membus.power_state.pwrStateResidencyTicks::UNDEFINED   2385895000                       # Cumulative time (in ticks) in various power states (Tick)
system.membus.reqLayer0.occupancy            37713000                       # Layer occupancy (ticks) (Tick)
system.membus.reqLayer0.utilization               0.0                       # Layer utilization (Ratio)
system.membus.respLayer1.occupancy           82804250                       # Layer occupancy (ticks) (Tick)
system.membus.respLayer1.utilization              0.0                       # Layer utilization (Ratio)
system.membus.snoop_filter.totRequests          27223                       # Total number of requests made to the snoop filter. (Count)
system.membus.snoop_filter.hitSingleRequests        11540                       # Number of requests hitting in the snoop filter with a single holder of the requested data. (Count)
system.membus.snoop_filter.hitMultiRequests            0                       # Number of requests hitting in the snoop filter with multiple (>1) holders of the requested data. (Count)
system.membus.snoop_filter.totSnoops                0                       # Total number of snoops made to the snoop filter. (Count)
system.membus.snoop_filter.hitSingleSnoops            0                       # Number of snoops hitting in the snoop filter with a single holder of the requested data. (Count)
system.membus.snoop_filter.hitMultiSnoops            0                       # Number of snoops hitting in the snoop filter with multiple (>1) holders of the requested data. (Count)
system.tol2bus.transDist::ReadResp              35484                       # Transaction distribution (Count)
system.tol2bus.transDist::WritebackDirty        11294                       # Transaction distribution (Count)
system.tol2bus.transDist::WritebackClean         1906                       # Transaction distribution (Count)
system.tol2bus.transDist::CleanEvict            35345                       # Transaction distribution (Count)
system.tol2bus.transDist::ReadExReq              2121                       # Transaction distribution (Count)
system.tol2bus.transDist::ReadExResp             2121                       # Transaction distribution (Count)
system.tol2bus.transDist::ReadCleanReq           2163                       # Transaction distribution (Count)
system.tol2bus.transDist::ReadSharedReq         33322                       # Transaction distribution (Count)
system.tol2bus.transDist::InvalidateReq           140                       # Transaction distribution (Count)
system.tol2bus.transDist::InvalidateResp          140                       # Transaction distribution (Count)
system.tol2bus.pktCount_system.cpu.icache.mem_side_port::system.l2.cpu_side_port         6231                       # Packet count per connected requestor and responder (Count)
system.tol2bus.pktCount_system.cpu.dcache.mem_side_port::system.l2.cpu_side_port       105725                       # Packet count per connected requestor and responder (Count)
system.tol2bus.pktCount::total                 111956                       # Packet count per connected requestor and responder (Count)
system.tol2bus.pktSize_system.cpu.icache.mem_side_port::system.l2.cpu_side_port       260352                       # Cumulative packet size per connected requestor and responder (Byte)
system.tol2bus.pktSize_system.cpu.dcache.mem_side_port::system.l2.cpu_side_port      2885632                       # Cumulative packet size per connected requestor and responder (Byte)
system.tol2bus.pktSize::total                 3145984                       # Cumulative packet size per connected requestor and responder (Byte)
system.tol2bus.snoops                           12080                       # Total snoops (Count)
system.tol2bus.snoopTraffic                    105536                       # Total snoop traffic (Byte)
system.tol2bus.snoopFanout::samples             49826                       # Request fanout histogram (Count)
system.tol2bus.snoopFanout::mean             0.014470                       # Request fanout histogram (Count)
system.tol2bus.snoopFanout::stdev            0.119420                       # Request fanout histogram (Count)
system.tol2bus.snoopFanout::underflows              0      0.00%      0.00% # Request fanout histogram (Count)
system.tol2bus.snoopFanout::0                   49105     98.55%     98.55% # Request fanout histogram (Count)
system.tol2bus.snoopFanout::1                     721      1.45%    100.00% # Request fanout histogram (Count)
system.tol2bus.snoopFanout::2                       0      0.00%    100.00% # Request fanout histogram (Count)
system.tol2bus.snoopFanout::overflows               0      0.00%    100.00% # Request fanout histogram (Count)
system.tol2bus.snoopFanout::min_value               0                       # Request fanout histogram (Count)
system.tol2bus.snoopFanout::max_value               1                       # Request fanout histogram (Count)
system.tol2bus.snoopFanout::total               49826                       # Request fanout histogram (Count)
system.tol2bus.power_state.pwrStateResidencyTicks::UNDEFINED   2385895000                       # Cumulative time (in ticks) in various power states (Tick)
system.tol2bus.reqLayer0.occupancy           48656500                       # Layer occupancy (ticks) (Tick)
system.tol2bus.reqLayer0.utilization              0.0                       # Layer utilization (Ratio)
system.tol2bus.respLayer0.occupancy           3244497                       # Layer occupancy (ticks) (Tick)
system.tol2bus.respLayer0.utilization             0.0                       # Layer utilization (Ratio)
system.tol2bus.respLayer1.occupancy          53234500                       # Layer occupancy (ticks) (Tick)
system.tol2bus.respLayer1.utilization             0.0                       # Layer utilization (Ratio)
system.tol2bus.snoop_filter.totRequests         74211                       # Total number of requests made to the snoop filter. (Count)
system.tol2bus.snoop_filter.hitSingleRequests        36465                       # Number of requests hitting in the snoop filter with a single holder of the requested data. (Count)
system.tol2bus.snoop_filter.hitMultiRequests            1                       # Number of requests hitting in the snoop filter with multiple (>1) holders of the requested data. (Count)
system.tol2bus.snoop_filter.totSnoops             720                       # Total number of snoops made to the snoop filter. (Count)
system.tol2bus.snoop_filter.hitSingleSnoops          720                       # Number of snoops hitting in the snoop filter with a single holder of the requested data. (Count)
system.tol2bus.snoop_filter.hitMultiSnoops            0                       # Number of snoops hitting in the snoop filter with multiple (>1) holders of the requested data. (Count)
system.voltage_domain.voltage                       1                       # Voltage in Volts (Volt)
system.workload.inst.arm                            0                       # number of arm instructions executed (Count)
system.workload.inst.quiesce                        0                       # number of quiesce instructions executed (Count)

---------- End Simulation Statistics   ----------
