
---------- Begin Simulation Statistics ----------
simSeconds                                   0.003977                       # Number of seconds simulated (Second)
simTicks                                   3976658000                       # Number of ticks simulated (Tick)
finalTick                                  4967023000                       # Number of ticks from beginning of simulation (restored from checkpoints and never reset) (Tick)
simFreq                                  1000000000000                       # The number of ticks per simulated second ((Tick/Second))
hostSeconds                                     28.71                       # Real time elapsed on the host (Second)
hostTickRate                                138499044                       # The number of ticks simulated per host second (ticks/s) ((Tick/Second))
hostMemory                                     680116                       # Number of bytes of host memory used (Byte)
simInsts                                      8033697                       # Number of instructions simulated (Count)
simOps                                        9255456                       # Number of ops (including micro ops) simulated (Count)
hostInstRate                                   279796                       # Simulator instruction rate (inst/s) ((Count/Second))
hostOpRate                                     322347                       # Simulator op (including micro ops) rate (op/s) ((Count/Second))
system.clk_domain.clock                          1000                       # Clock period in ticks (Tick)
system.cpu.numCycles                          7953316                       # Number of cpu cycles simulated (Cycle)
system.cpu.numWorkItemsStarted                      0                       # Number of work items this cpu started (Count)
system.cpu.numWorkItemsCompleted                    0                       # Number of work items this cpu completed (Count)
system.cpu.instsAdded                         7397111                       # Number of instructions added to the IQ (excludes non-spec) (Count)
system.cpu.nonSpecInstsAdded                        2                       # Number of non-speculative instructions added to the IQ (Count)
system.cpu.instsIssued                        8833811                       # Number of instructions issued (Count)
system.cpu.squashedInstsIssued                   1600                       # Number of squashed instructions issued (Count)
system.cpu.squashedInstsExamined                68140                       # Number of squashed instructions iterated over during squash; mainly for profiling (Count)
system.cpu.squashedOperandsExamined             40093                       # Number of squashed operands that are examined and possibly removed from graph (Count)
system.cpu.squashedNonSpecRemoved                   1                       # Number of squashed non-spec instructions that were removed (Count)
system.cpu.numIssuedDist::samples             7951671                       # Number of insts issued each cycle (Count)
system.cpu.numIssuedDist::mean               1.110938                       # Number of insts issued each cycle (Count)
system.cpu.numIssuedDist::stdev              2.147265                       # Number of insts issued each cycle (Count)
system.cpu.numIssuedDist::underflows                0      0.00%      0.00% # Number of insts issued each cycle (Count)
system.cpu.numIssuedDist::0                   5906496     74.28%     74.28% # Number of insts issued each cycle (Count)
system.cpu.numIssuedDist::1                    180913      2.28%     76.56% # Number of insts issued each cycle (Count)
system.cpu.numIssuedDist::2                    191909      2.41%     78.97% # Number of insts issued each cycle (Count)
system.cpu.numIssuedDist::3                    324137      4.08%     83.04% # Number of insts issued each cycle (Count)
system.cpu.numIssuedDist::4                    575996      7.24%     90.29% # Number of insts issued each cycle (Count)
system.cpu.numIssuedDist::5                    225246      2.83%     93.12% # Number of insts issued each cycle (Count)
system.cpu.numIssuedDist::6                    198899      2.50%     95.62% # Number of insts issued each cycle (Count)
system.cpu.numIssuedDist::7                    111539      1.40%     97.03% # Number of insts issued each cycle (Count)
system.cpu.numIssuedDist::8                    236536      2.97%    100.00% # Number of insts issued each cycle (Count)
system.cpu.numIssuedDist::overflows                 0      0.00%    100.00% # Number of insts issued each cycle (Count)
system.cpu.numIssuedDist::min_value                 0                       # Number of insts issued each cycle (Count)
system.cpu.numIssuedDist::max_value                 8                       # Number of insts issued each cycle (Count)
system.cpu.numIssuedDist::total               7951671                       # Number of insts issued each cycle (Count)
system.cpu.statFuBusy::No_OpClass                   0      0.00%      0.00% # attempts to use FU when none available (Count)
system.cpu.statFuBusy::IntAlu                    2821      0.48%      0.48% # attempts to use FU when none available (Count)
system.cpu.statFuBusy::IntMult                      0      0.00%      0.48% # attempts to use FU when none available (Count)
system.cpu.statFuBusy::IntDiv                       0      0.00%      0.48% # attempts to use FU when none available (Count)
system.cpu.statFuBusy::FloatAdd                     0      0.00%      0.48% # attempts to use FU when none available (Count)
system.cpu.statFuBusy::FloatCmp                     0      0.00%      0.48% # attempts to use FU when none available (Count)
system.cpu.statFuBusy::FloatCvt                     0      0.00%      0.48% # attempts to use FU when none available (Count)
system.cpu.statFuBusy::FloatMult                    0      0.00%      0.48% # attempts to use FU when none available (Count)
system.cpu.statFuBusy::FloatMultAcc                 0      0.00%      0.48% # attempts to use FU when none available (Count)
system.cpu.statFuBusy::FloatDiv                     0      0.00%      0.48% # attempts to use FU when none available (Count)
system.cpu.statFuBusy::FloatMisc                    0      0.00%      0.48% # attempts to use FU when none available (Count)
system.cpu.statFuBusy::FloatSqrt                    0      0.00%      0.48% # attempts to use FU when none available (Count)
system.cpu.statFuBusy::SimdAdd                    925      0.16%      0.64% # attempts to use FU when none available (Count)
system.cpu.statFuBusy::SimdAddAcc                   0      0.00%      0.64% # attempts to use FU when none available (Count)
system.cpu.statFuBusy::SimdAlu                  95880     16.44%     17.08% # attempts to use FU when none available (Count)
system.cpu.statFuBusy::SimdCmp                      0      0.00%     17.08% # attempts to use FU when none available (Count)
system.cpu.statFuBusy::SimdCvt                      0      0.00%     17.08% # attempts to use FU when none available (Count)
system.cpu.statFuBusy::SimdMisc                   426      0.07%     17.16% # attempts to use FU when none available (Count)
system.cpu.statFuBusy::SimdMult                 94184     16.15%     33.31% # attempts to use FU when none available (Count)
system.cpu.statFuBusy::SimdMultAcc              63334     10.86%     44.17% # attempts to use FU when none available (Count)
system.cpu.statFuBusy::SimdShift                    0      0.00%     44.17% # attempts to use FU when none available (Count)
system.cpu.statFuBusy::SimdShiftAcc                 0      0.00%     44.17% # attempts to use FU when none available (Count)
system.cpu.statFuBusy::SimdDiv                      0      0.00%     44.17% # attempts to use FU when none available (Count)
system.cpu.statFuBusy::SimdSqrt                     0      0.00%     44.17% # attempts to use FU when none available (Count)
system.cpu.statFuBusy::SimdFloatAdd                 0      0.00%     44.17% # attempts to use FU when none available (Count)
system.cpu.statFuBusy::SimdFloatAlu                 0      0.00%     44.17% # attempts to use FU when none available (Count)
system.cpu.statFuBusy::SimdFloatCmp                 0      0.00%     44.17% # attempts to use FU when none available (Count)
system.cpu.statFuBusy::SimdFloatCvt                 0      0.00%     44.17% # attempts to use FU when none available (Count)
system.cpu.statFuBusy::SimdFloatDiv                 0      0.00%     44.17% # attempts to use FU when none available (Count)
system.cpu.statFuBusy::SimdFloatMisc                0      0.00%     44.17% # attempts to use FU when none available (Count)
system.cpu.statFuBusy::SimdFloatMult                0      0.00%     44.17% # attempts to use FU when none available (Count)
system.cpu.statFuBusy::SimdFloatMultAcc             0      0.00%     44.17% # attempts to use FU when none available (Count)
system.cpu.statFuBusy::SimdFloatSqrt                0      0.00%     44.17% # attempts to use FU when none available (Count)
system.cpu.statFuBusy::SimdReduceAdd                0      0.00%     44.17% # attempts to use FU when none available (Count)
system.cpu.statFuBusy::SimdReduceAlu                0      0.00%     44.17% # attempts to use FU when none available (Count)
system.cpu.statFuBusy::SimdReduceCmp                0      0.00%     44.17% # attempts to use FU when none available (Count)
system.cpu.statFuBusy::SimdFloatReduceAdd            0      0.00%     44.17% # attempts to use FU when none available (Count)
system.cpu.statFuBusy::SimdFloatReduceCmp            0      0.00%     44.17% # attempts to use FU when none available (Count)
system.cpu.statFuBusy::SimdAes                      0      0.00%     44.17% # attempts to use FU when none available (Count)
system.cpu.statFuBusy::SimdAesMix                   0      0.00%     44.17% # attempts to use FU when none available (Count)
system.cpu.statFuBusy::SimdSha1Hash                 0      0.00%     44.17% # attempts to use FU when none available (Count)
system.cpu.statFuBusy::SimdSha1Hash2                0      0.00%     44.17% # attempts to use FU when none available (Count)
system.cpu.statFuBusy::SimdSha256Hash               0      0.00%     44.17% # attempts to use FU when none available (Count)
system.cpu.statFuBusy::SimdSha256Hash2              0      0.00%     44.17% # attempts to use FU when none available (Count)
system.cpu.statFuBusy::SimdShaSigma2                0      0.00%     44.17% # attempts to use FU when none available (Count)
system.cpu.statFuBusy::SimdShaSigma3                0      0.00%     44.17% # attempts to use FU when none available (Count)
system.cpu.statFuBusy::SimdPredAlu                  0      0.00%     44.17% # attempts to use FU when none available (Count)
system.cpu.statFuBusy::MemRead                 325545     55.82%     99.99% # attempts to use FU when none available (Count)
system.cpu.statFuBusy::MemWrite                    42      0.01%    100.00% # attempts to use FU when none available (Count)
system.cpu.statFuBusy::FloatMemRead                 0      0.00%    100.00% # attempts to use FU when none available (Count)
system.cpu.statFuBusy::FloatMemWrite                0      0.00%    100.00% # attempts to use FU when none available (Count)
system.cpu.statFuBusy::IprAccess                    0      0.00%    100.00% # attempts to use FU when none available (Count)
system.cpu.statFuBusy::InstPrefetch                 0      0.00%    100.00% # attempts to use FU when none available (Count)
system.cpu.statIssuedInstType_0::No_OpClass       418205      4.73%      4.73% # Number of instructions issued per FU type, per thread (Count)
system.cpu.statIssuedInstType_0::IntAlu       2757986     31.22%     35.95% # Number of instructions issued per FU type, per thread (Count)
system.cpu.statIssuedInstType_0::IntMult            1      0.00%     35.95% # Number of instructions issued per FU type, per thread (Count)
system.cpu.statIssuedInstType_0::IntDiv             0      0.00%     35.95% # Number of instructions issued per FU type, per thread (Count)
system.cpu.statIssuedInstType_0::FloatAdd            0      0.00%     35.95% # Number of instructions issued per FU type, per thread (Count)
system.cpu.statIssuedInstType_0::FloatCmp            0      0.00%     35.95% # Number of instructions issued per FU type, per thread (Count)
system.cpu.statIssuedInstType_0::FloatCvt            0      0.00%     35.95% # Number of instructions issued per FU type, per thread (Count)
system.cpu.statIssuedInstType_0::FloatMult            0      0.00%     35.95% # Number of instructions issued per FU type, per thread (Count)
system.cpu.statIssuedInstType_0::FloatMultAcc            0      0.00%     35.95% # Number of instructions issued per FU type, per thread (Count)
system.cpu.statIssuedInstType_0::FloatDiv            0      0.00%     35.95% # Number of instructions issued per FU type, per thread (Count)
system.cpu.statIssuedInstType_0::FloatMisc            0      0.00%     35.95% # Number of instructions issued per FU type, per thread (Count)
system.cpu.statIssuedInstType_0::FloatSqrt            0      0.00%     35.95% # Number of instructions issued per FU type, per thread (Count)
system.cpu.statIssuedInstType_0::SimdAdd       417316      4.72%     40.68% # Number of instructions issued per FU type, per thread (Count)
system.cpu.statIssuedInstType_0::SimdAddAcc            0      0.00%     40.68% # Number of instructions issued per FU type, per thread (Count)
system.cpu.statIssuedInstType_0::SimdAlu       526161      5.96%     46.64% # Number of instructions issued per FU type, per thread (Count)
system.cpu.statIssuedInstType_0::SimdCmp            0      0.00%     46.64% # Number of instructions issued per FU type, per thread (Count)
system.cpu.statIssuedInstType_0::SimdCvt            0      0.00%     46.64% # Number of instructions issued per FU type, per thread (Count)
system.cpu.statIssuedInstType_0::SimdMisc       208668      2.36%     49.00% # Number of instructions issued per FU type, per thread (Count)
system.cpu.statIssuedInstType_0::SimdMult       210988      2.39%     51.39% # Number of instructions issued per FU type, per thread (Count)
system.cpu.statIssuedInstType_0::SimdMultAcc      1672316     18.93%     70.32% # Number of instructions issued per FU type, per thread (Count)
system.cpu.statIssuedInstType_0::SimdShift            0      0.00%     70.32% # Number of instructions issued per FU type, per thread (Count)
system.cpu.statIssuedInstType_0::SimdShiftAcc            0      0.00%     70.32% # Number of instructions issued per FU type, per thread (Count)
system.cpu.statIssuedInstType_0::SimdDiv            0      0.00%     70.32% # Number of instructions issued per FU type, per thread (Count)
system.cpu.statIssuedInstType_0::SimdSqrt            0      0.00%     70.32% # Number of instructions issued per FU type, per thread (Count)
system.cpu.statIssuedInstType_0::SimdFloatAdd            0      0.00%     70.32% # Number of instructions issued per FU type, per thread (Count)
system.cpu.statIssuedInstType_0::SimdFloatAlu            0      0.00%     70.32% # Number of instructions issued per FU type, per thread (Count)
system.cpu.statIssuedInstType_0::SimdFloatCmp            0      0.00%     70.32% # Number of instructions issued per FU type, per thread (Count)
system.cpu.statIssuedInstType_0::SimdFloatCvt            0      0.00%     70.32% # Number of instructions issued per FU type, per thread (Count)
system.cpu.statIssuedInstType_0::SimdFloatDiv            0      0.00%     70.32% # Number of instructions issued per FU type, per thread (Count)
system.cpu.statIssuedInstType_0::SimdFloatMisc            0      0.00%     70.32% # Number of instructions issued per FU type, per thread (Count)
system.cpu.statIssuedInstType_0::SimdFloatMult            0      0.00%     70.32% # Number of instructions issued per FU type, per thread (Count)
system.cpu.statIssuedInstType_0::SimdFloatMultAcc            0      0.00%     70.32% # Number of instructions issued per FU type, per thread (Count)
system.cpu.statIssuedInstType_0::SimdFloatSqrt            0      0.00%     70.32% # Number of instructions issued per FU type, per thread (Count)
system.cpu.statIssuedInstType_0::SimdReduceAdd            0      0.00%     70.32% # Number of instructions issued per FU type, per thread (Count)
system.cpu.statIssuedInstType_0::SimdReduceAlu            0      0.00%     70.32% # Number of instructions issued per FU type, per thread (Count)
system.cpu.statIssuedInstType_0::SimdReduceCmp            0      0.00%     70.32% # Number of instructions issued per FU type, per thread (Count)
system.cpu.statIssuedInstType_0::SimdFloatReduceAdd            0      0.00%     70.32% # Number of instructions issued per FU type, per thread (Count)
system.cpu.statIssuedInstType_0::SimdFloatReduceCmp            0      0.00%     70.32% # Number of instructions issued per FU type, per thread (Count)
system.cpu.statIssuedInstType_0::SimdAes            0      0.00%     70.32% # Number of instructions issued per FU type, per thread (Count)
system.cpu.statIssuedInstType_0::SimdAesMix            0      0.00%     70.32% # Number of instructions issued per FU type, per thread (Count)
system.cpu.statIssuedInstType_0::SimdSha1Hash            0      0.00%     70.32% # Number of instructions issued per FU type, per thread (Count)
system.cpu.statIssuedInstType_0::SimdSha1Hash2            0      0.00%     70.32% # Number of instructions issued per FU type, per thread (Count)
system.cpu.statIssuedInstType_0::SimdSha256Hash            0      0.00%     70.32% # Number of instructions issued per FU type, per thread (Count)
system.cpu.statIssuedInstType_0::SimdSha256Hash2            0      0.00%     70.32% # Number of instructions issued per FU type, per thread (Count)
system.cpu.statIssuedInstType_0::SimdShaSigma2            0      0.00%     70.32% # Number of instructions issued per FU type, per thread (Count)
system.cpu.statIssuedInstType_0::SimdShaSigma3            0      0.00%     70.32% # Number of instructions issued per FU type, per thread (Count)
system.cpu.statIssuedInstType_0::SimdPredAlu            0      0.00%     70.32% # Number of instructions issued per FU type, per thread (Count)
system.cpu.statIssuedInstType_0::MemRead      2509816     28.41%     98.73% # Number of instructions issued per FU type, per thread (Count)
system.cpu.statIssuedInstType_0::MemWrite       112354      1.27%    100.00% # Number of instructions issued per FU type, per thread (Count)
system.cpu.statIssuedInstType_0::FloatMemRead            0      0.00%    100.00% # Number of instructions issued per FU type, per thread (Count)
system.cpu.statIssuedInstType_0::FloatMemWrite            0      0.00%    100.00% # Number of instructions issued per FU type, per thread (Count)
system.cpu.statIssuedInstType_0::IprAccess            0      0.00%    100.00% # Number of instructions issued per FU type, per thread (Count)
system.cpu.statIssuedInstType_0::InstPrefetch            0      0.00%    100.00% # Number of instructions issued per FU type, per thread (Count)
system.cpu.statIssuedInstType_0::total        8833811                       # Number of instructions issued per FU type, per thread (Count)
system.cpu.issueRate                         1.110708                       # Inst issue rate ((Count/Cycle))
system.cpu.fuBusy                              583157                       # FU busy when requested (Count)
system.cpu.fuBusyRate                        0.066014                       # FU busy rate (busy events/executed inst) ((Count/Count))
system.cpu.intInstQueueReads                 13680646                       # Number of integer instruction queue reads (Count)
system.cpu.intInstQueueWrites                 2898635                       # Number of integer instruction queue writes (Count)
system.cpu.intInstQueueWakeupAccesses         2860498                       # Number of integer instruction queue wakeup accesses (Count)
system.cpu.fpInstQueueReads                         0                       # Number of floating instruction queue reads (Count)
system.cpu.fpInstQueueWrites                        0                       # Number of floating instruction queue writes (Count)
system.cpu.fpInstQueueWakeupAccesses                0                       # Number of floating instruction queue wakeup accesses (Count)
system.cpu.vecInstQueueReads                 12523404                       # Number of vector instruction queue reads (Count)
system.cpu.vecInstQueueWrites                 4566634                       # Number of vector instruction queue writes (Count)
system.cpu.vecInstQueueWakeupAccesses         4523251                       # Number of vector instruction queue wakeup accesses (Count)
system.cpu.intAluAccesses                     2865654                       # Number of integer alu accesses (Count)
system.cpu.fpAluAccesses                            0                       # Number of floating point alu accesses (Count)
system.cpu.vecAluAccesses                     6133109                       # Number of vector alu accesses (Count)
system.cpu.numInsts                           8831866                       # Number of executed instructions (Count)
system.cpu.numLoadInsts                       2509789                       # Number of load instructions executed (Count)
system.cpu.numSquashedInsts                      1945                       # Number of squashed instructions skipped in execute (Count)
system.cpu.numSwp                                   0                       # Number of swp insts executed (Count)
system.cpu.numNop                                  11                       # Number of nop insts executed (Count)
system.cpu.numRefs                            2622142                       # Number of memory reference insts executed (Count)
system.cpu.numBranches                          54457                       # Number of branches executed (Count)
system.cpu.numStoreInsts                       112353                       # Number of stores executed (Count)
system.cpu.numRate                           1.110463                       # Inst execution rate ((Count/Cycle))
system.cpu.timesIdled                              16                       # Number of times that the entire CPU went into an idle state and unscheduled itself (Count)
system.cpu.idleCycles                            1645                       # Total number of cycles that the CPU has spent unscheduled due to idling (Cycle)
system.cpu.committedInsts                     6376322                       # Number of Instructions Simulated (Count)
system.cpu.committedOps                       7328982                       # Number of Ops (including micro ops) Simulated (Count)
system.cpu.cpi                               1.247320                       # CPI: Cycles Per Instruction ((Cycle/Count))
system.cpu.totalCpi                          1.247320                       # CPI: Total CPI of All Threads ((Cycle/Count))
system.cpu.ipc                               0.801719                       # IPC: Instructions Per Cycle ((Count/Cycle))
system.cpu.totalIpc                          0.801719                       # IPC: Total IPC of All Threads ((Count/Cycle))
system.cpu.intRegfileReads                    6643524                       # Number of integer regfile reads (Count)
system.cpu.intRegfileWrites                   2698258                       # Number of integer regfile writes (Count)
system.cpu.vecRegfileReads                   13312618                       # number of vector regfile reads (Count)
system.cpu.ccRegfileReads                     1424877                       # number of cc regfile reads (Count)
system.cpu.ccRegfileWrites                    1427859                       # number of cc regfile writes (Count)
system.cpu.miscRegfileReads                  11157509                       # number of misc regfile reads (Count)
system.cpu.MemDepUnit__0.insertedLoads        1063118                       # Number of loads inserted to the mem dependence unit. (Count)
system.cpu.MemDepUnit__0.insertedStores        112858                       # Number of stores inserted to the mem dependence unit. (Count)
system.cpu.MemDepUnit__0.conflictingLoads          578                       # Number of conflicting loads. (Count)
system.cpu.MemDepUnit__0.conflictingStores         4006                       # Number of conflicting stores. (Count)
system.cpu.MemDepUnit__1.insertedLoads              0                       # Number of loads inserted to the mem dependence unit. (Count)
system.cpu.MemDepUnit__1.insertedStores             0                       # Number of stores inserted to the mem dependence unit. (Count)
system.cpu.MemDepUnit__1.conflictingLoads            0                       # Number of conflicting loads. (Count)
system.cpu.MemDepUnit__1.conflictingStores            0                       # Number of conflicting stores. (Count)
system.cpu.MemDepUnit__2.insertedLoads              0                       # Number of loads inserted to the mem dependence unit. (Count)
system.cpu.MemDepUnit__2.insertedStores             0                       # Number of stores inserted to the mem dependence unit. (Count)
system.cpu.MemDepUnit__2.conflictingLoads            0                       # Number of conflicting loads. (Count)
system.cpu.MemDepUnit__2.conflictingStores            0                       # Number of conflicting stores. (Count)
system.cpu.MemDepUnit__3.insertedLoads              0                       # Number of loads inserted to the mem dependence unit. (Count)
system.cpu.MemDepUnit__3.insertedStores             0                       # Number of stores inserted to the mem dependence unit. (Count)
system.cpu.MemDepUnit__3.conflictingLoads            0                       # Number of conflicting loads. (Count)
system.cpu.MemDepUnit__3.conflictingStores            0                       # Number of conflicting stores. (Count)
system.cpu.branchPred.lookups                   54543                       # Number of BP lookups (Count)
system.cpu.branchPred.condPredicted             54472                       # Number of conditional branches predicted (Count)
system.cpu.branchPred.condIncorrect               946                       # Number of conditional branches incorrect (Count)
system.cpu.branchPred.BTBLookups                53535                       # Number of BTB lookups (Count)
system.cpu.branchPred.BTBUpdates                   13                       # Number of BTB updates (Count)
system.cpu.branchPred.BTBHits                   53526                       # Number of BTB hits (Count)
system.cpu.branchPred.BTBHitRatio            0.999832                       # BTB Hit Ratio (Ratio)
system.cpu.branchPred.RASUsed                       4                       # Number of times the RAS was used to get a target. (Count)
system.cpu.branchPred.RASIncorrect                  0                       # Number of incorrect RAS predictions. (Count)
system.cpu.branchPred.indirectLookups              48                       # Number of indirect predictor lookups. (Count)
system.cpu.branchPred.indirectHits                  0                       # Number of indirect target hits. (Count)
system.cpu.branchPred.indirectMisses               48                       # Number of indirect misses. (Count)
system.cpu.branchPred.indirectMispredicted            3                       # Number of mispredicted indirect branches. (Count)
system.cpu.commit.commitSquashedInsts           67444                       # The number of squashed insts skipped by commit (Count)
system.cpu.commit.commitNonSpecStalls               1                       # The number of times commit has been forced to stall to communicate backwards (Count)
system.cpu.commit.branchMispredicts               944                       # The number of times a branch was mispredicted (Count)
system.cpu.commit.numCommittedDist::samples      7942898                       # Number of insts commited each cycle (Count)
system.cpu.commit.numCommittedDist::mean     0.922710                       # Number of insts commited each cycle (Count)
system.cpu.commit.numCommittedDist::stdev     2.426317                       # Number of insts commited each cycle (Count)
system.cpu.commit.numCommittedDist::underflows            0      0.00%      0.00% # Number of insts commited each cycle (Count)
system.cpu.commit.numCommittedDist::0         6799396     85.60%     85.60% # Number of insts commited each cycle (Count)
system.cpu.commit.numCommittedDist::1          104006      1.31%     86.91% # Number of insts commited each cycle (Count)
system.cpu.commit.numCommittedDist::2            1624      0.02%     86.93% # Number of insts commited each cycle (Count)
system.cpu.commit.numCommittedDist::3           94748      1.19%     88.13% # Number of insts commited each cycle (Count)
system.cpu.commit.numCommittedDist::4           50483      0.64%     88.76% # Number of insts commited each cycle (Count)
system.cpu.commit.numCommittedDist::5          100862      1.27%     90.03% # Number of insts commited each cycle (Count)
system.cpu.commit.numCommittedDist::6           50426      0.63%     90.67% # Number of insts commited each cycle (Count)
system.cpu.commit.numCommittedDist::7            2130      0.03%     90.69% # Number of insts commited each cycle (Count)
system.cpu.commit.numCommittedDist::8          739223      9.31%    100.00% # Number of insts commited each cycle (Count)
system.cpu.commit.numCommittedDist::overflows            0      0.00%    100.00% # Number of insts commited each cycle (Count)
system.cpu.commit.numCommittedDist::min_value            0                       # Number of insts commited each cycle (Count)
system.cpu.commit.numCommittedDist::max_value            8                       # Number of insts commited each cycle (Count)
system.cpu.commit.numCommittedDist::total      7942898                       # Number of insts commited each cycle (Count)
system.cpu.commit.instsCommitted              6376330                       # Number of instructions committed (Count)
system.cpu.commit.opsCommitted                7328990                       # Number of ops (including micro ops) committed (Count)
system.cpu.commit.memRefs                     1167887                       # Number of memory references committed (Count)
system.cpu.commit.loads                       1056319                       # Number of loads committed (Count)
system.cpu.commit.amos                              0                       # Number of atomic instructions committed (Count)
system.cpu.commit.membars                           0                       # Number of memory barriers committed (Count)
system.cpu.commit.branches                      53827                       # Number of branches committed (Count)
system.cpu.commit.vectorInstructions          4496911                       # Number of committed Vector instructions. (Count)
system.cpu.commit.floating                          0                       # Number of committed floating point instructions. (Count)
system.cpu.commit.integer                     4050100                       # Number of committed integer instructions. (Count)
system.cpu.commit.functionCalls                     1                       # Number of function calls committed. (Count)
system.cpu.commit.committedInstType_0::No_OpClass       415984      5.68%      5.68% # Class of committed instruction (Count)
system.cpu.commit.committedInstType_0::IntAlu      2728109     37.22%     42.90% # Class of committed instruction (Count)
system.cpu.commit.committedInstType_0::IntMult            1      0.00%     42.90% # Class of committed instruction (Count)
system.cpu.commit.committedInstType_0::IntDiv            0      0.00%     42.90% # Class of committed instruction (Count)
system.cpu.commit.committedInstType_0::FloatAdd            0      0.00%     42.90% # Class of committed instruction (Count)
system.cpu.commit.committedInstType_0::FloatCmp            0      0.00%     42.90% # Class of committed instruction (Count)
system.cpu.commit.committedInstType_0::FloatCvt            0      0.00%     42.90% # Class of committed instruction (Count)
system.cpu.commit.committedInstType_0::FloatMult            0      0.00%     42.90% # Class of committed instruction (Count)
system.cpu.commit.committedInstType_0::FloatMultAcc            0      0.00%     42.90% # Class of committed instruction (Count)
system.cpu.commit.committedInstType_0::FloatDiv            0      0.00%     42.90% # Class of committed instruction (Count)
system.cpu.commit.committedInstType_0::FloatMisc            0      0.00%     42.90% # Class of committed instruction (Count)
system.cpu.commit.committedInstType_0::FloatSqrt            0      0.00%     42.90% # Class of committed instruction (Count)
system.cpu.commit.committedInstType_0::SimdAdd       415872      5.67%     48.57% # Class of committed instruction (Count)
system.cpu.commit.committedInstType_0::SimdAddAcc            0      0.00%     48.57% # Class of committed instruction (Count)
system.cpu.commit.committedInstType_0::SimdAlu       521777      7.12%     55.69% # Class of committed instruction (Count)
system.cpu.commit.committedInstType_0::SimdCmp            0      0.00%     55.69% # Class of committed instruction (Count)
system.cpu.commit.committedInstType_0::SimdCvt            0      0.00%     55.69% # Class of committed instruction (Count)
system.cpu.commit.committedInstType_0::SimdMisc       207936      2.84%     58.53% # Class of committed instruction (Count)
system.cpu.commit.committedInstType_0::SimdMult       207936      2.84%     61.37% # Class of committed instruction (Count)
system.cpu.commit.committedInstType_0::SimdMultAcc      1663488     22.70%     84.06% # Class of committed instruction (Count)
system.cpu.commit.committedInstType_0::SimdShift            0      0.00%     84.06% # Class of committed instruction (Count)
system.cpu.commit.committedInstType_0::SimdShiftAcc            0      0.00%     84.06% # Class of committed instruction (Count)
system.cpu.commit.committedInstType_0::SimdDiv            0      0.00%     84.06% # Class of committed instruction (Count)
system.cpu.commit.committedInstType_0::SimdSqrt            0      0.00%     84.06% # Class of committed instruction (Count)
system.cpu.commit.committedInstType_0::SimdFloatAdd            0      0.00%     84.06% # Class of committed instruction (Count)
system.cpu.commit.committedInstType_0::SimdFloatAlu            0      0.00%     84.06% # Class of committed instruction (Count)
system.cpu.commit.committedInstType_0::SimdFloatCmp            0      0.00%     84.06% # Class of committed instruction (Count)
system.cpu.commit.committedInstType_0::SimdFloatCvt            0      0.00%     84.06% # Class of committed instruction (Count)
system.cpu.commit.committedInstType_0::SimdFloatDiv            0      0.00%     84.06% # Class of committed instruction (Count)
system.cpu.commit.committedInstType_0::SimdFloatMisc            0      0.00%     84.06% # Class of committed instruction (Count)
system.cpu.commit.committedInstType_0::SimdFloatMult            0      0.00%     84.06% # Class of committed instruction (Count)
system.cpu.commit.committedInstType_0::SimdFloatMultAcc            0      0.00%     84.06% # Class of committed instruction (Count)
system.cpu.commit.committedInstType_0::SimdFloatSqrt            0      0.00%     84.06% # Class of committed instruction (Count)
system.cpu.commit.committedInstType_0::SimdReduceAdd            0      0.00%     84.06% # Class of committed instruction (Count)
system.cpu.commit.committedInstType_0::SimdReduceAlu            0      0.00%     84.06% # Class of committed instruction (Count)
system.cpu.commit.committedInstType_0::SimdReduceCmp            0      0.00%     84.06% # Class of committed instruction (Count)
system.cpu.commit.committedInstType_0::SimdFloatReduceAdd            0      0.00%     84.06% # Class of committed instruction (Count)
system.cpu.commit.committedInstType_0::SimdFloatReduceCmp            0      0.00%     84.06% # Class of committed instruction (Count)
system.cpu.commit.committedInstType_0::SimdAes            0      0.00%     84.06% # Class of committed instruction (Count)
system.cpu.commit.committedInstType_0::SimdAesMix            0      0.00%     84.06% # Class of committed instruction (Count)
system.cpu.commit.committedInstType_0::SimdSha1Hash            0      0.00%     84.06% # Class of committed instruction (Count)
system.cpu.commit.committedInstType_0::SimdSha1Hash2            0      0.00%     84.06% # Class of committed instruction (Count)
system.cpu.commit.committedInstType_0::SimdSha256Hash            0      0.00%     84.06% # Class of committed instruction (Count)
system.cpu.commit.committedInstType_0::SimdSha256Hash2            0      0.00%     84.06% # Class of committed instruction (Count)
system.cpu.commit.committedInstType_0::SimdShaSigma2            0      0.00%     84.06% # Class of committed instruction (Count)
system.cpu.commit.committedInstType_0::SimdShaSigma3            0      0.00%     84.06% # Class of committed instruction (Count)
system.cpu.commit.committedInstType_0::SimdPredAlu            0      0.00%     84.06% # Class of committed instruction (Count)
system.cpu.commit.committedInstType_0::MemRead      1056319     14.41%     98.48% # Class of committed instruction (Count)
system.cpu.commit.committedInstType_0::MemWrite       111568      1.52%    100.00% # Class of committed instruction (Count)
system.cpu.commit.committedInstType_0::FloatMemRead            0      0.00%    100.00% # Class of committed instruction (Count)
system.cpu.commit.committedInstType_0::FloatMemWrite            0      0.00%    100.00% # Class of committed instruction (Count)
system.cpu.commit.committedInstType_0::IprAccess            0      0.00%    100.00% # Class of committed instruction (Count)
system.cpu.commit.committedInstType_0::InstPrefetch            0      0.00%    100.00% # Class of committed instruction (Count)
system.cpu.commit.committedInstType_0::total      7328990                       # Class of committed instruction (Count)
system.cpu.commit.commitEligibleSamples        739223                       # number cycles where commit BW limit reached (Cycle)
system.cpu.dcache.demandHits::cpu.data         835025                       # number of demand (read+write) hits (Count)
system.cpu.dcache.demandHits::total            835025                       # number of demand (read+write) hits (Count)
system.cpu.dcache.overallHits::cpu.data        835025                       # number of overall hits (Count)
system.cpu.dcache.overallHits::total           835025                       # number of overall hits (Count)
system.cpu.dcache.demandMisses::cpu.data       338932                       # number of demand (read+write) misses (Count)
system.cpu.dcache.demandMisses::total          338932                       # number of demand (read+write) misses (Count)
system.cpu.dcache.overallMisses::cpu.data       338932                       # number of overall misses (Count)
system.cpu.dcache.overallMisses::total         338932                       # number of overall misses (Count)
system.cpu.dcache.demandMissLatency::cpu.data  19968864456                       # number of demand (read+write) miss ticks (Tick)
system.cpu.dcache.demandMissLatency::total  19968864456                       # number of demand (read+write) miss ticks (Tick)
system.cpu.dcache.overallMissLatency::cpu.data  19968864456                       # number of overall miss ticks (Tick)
system.cpu.dcache.overallMissLatency::total  19968864456                       # number of overall miss ticks (Tick)
system.cpu.dcache.demandAccesses::cpu.data      1173957                       # number of demand (read+write) accesses (Count)
system.cpu.dcache.demandAccesses::total       1173957                       # number of demand (read+write) accesses (Count)
system.cpu.dcache.overallAccesses::cpu.data      1173957                       # number of overall (read+write) accesses (Count)
system.cpu.dcache.overallAccesses::total      1173957                       # number of overall (read+write) accesses (Count)
system.cpu.dcache.demandMissRate::cpu.data     0.288709                       # miss rate for demand accesses (Ratio)
system.cpu.dcache.demandMissRate::total      0.288709                       # miss rate for demand accesses (Ratio)
system.cpu.dcache.overallMissRate::cpu.data     0.288709                       # miss rate for overall accesses (Ratio)
system.cpu.dcache.overallMissRate::total     0.288709                       # miss rate for overall accesses (Ratio)
system.cpu.dcache.demandAvgMissLatency::cpu.data 58917.023049                       # average overall miss latency in ticks ((Tick/Count))
system.cpu.dcache.demandAvgMissLatency::total 58917.023049                       # average overall miss latency in ticks ((Tick/Count))
system.cpu.dcache.overallAvgMissLatency::cpu.data 58917.023049                       # average overall miss latency ((Tick/Count))
system.cpu.dcache.overallAvgMissLatency::total 58917.023049                       # average overall miss latency ((Tick/Count))
system.cpu.dcache.blockedCycles::no_mshrs      6565214                       # number of cycles access was blocked (Cycle)
system.cpu.dcache.blockedCycles::no_targets            0                       # number of cycles access was blocked (Cycle)
system.cpu.dcache.blockedCauses::no_mshrs       134964                       # number of times access was blocked (Count)
system.cpu.dcache.blockedCauses::no_targets            0                       # number of times access was blocked (Count)
system.cpu.dcache.avgBlocked::no_mshrs      48.644187                       # average number of cycles each access was blocked ((Cycle/Count))
system.cpu.dcache.avgBlocked::no_targets          nan                       # average number of cycles each access was blocked ((Cycle/Count))
system.cpu.dcache.writebacks::writebacks       103703                       # number of writebacks (Count)
system.cpu.dcache.writebacks::total            103703                       # number of writebacks (Count)
system.cpu.dcache.demandMshrHits::cpu.data       182920                       # number of demand (read+write) MSHR hits (Count)
system.cpu.dcache.demandMshrHits::total        182920                       # number of demand (read+write) MSHR hits (Count)
system.cpu.dcache.overallMshrHits::cpu.data       182920                       # number of overall MSHR hits (Count)
system.cpu.dcache.overallMshrHits::total       182920                       # number of overall MSHR hits (Count)
system.cpu.dcache.demandMshrMisses::cpu.data       156012                       # number of demand (read+write) MSHR misses (Count)
system.cpu.dcache.demandMshrMisses::total       156012                       # number of demand (read+write) MSHR misses (Count)
system.cpu.dcache.overallMshrMisses::cpu.data       156012                       # number of overall MSHR misses (Count)
system.cpu.dcache.overallMshrMisses::total       156012                       # number of overall MSHR misses (Count)
system.cpu.dcache.demandMshrMissLatency::cpu.data  15009886956                       # number of demand (read+write) MSHR miss ticks (Tick)
system.cpu.dcache.demandMshrMissLatency::total  15009886956                       # number of demand (read+write) MSHR miss ticks (Tick)
system.cpu.dcache.overallMshrMissLatency::cpu.data  15009886956                       # number of overall MSHR miss ticks (Tick)
system.cpu.dcache.overallMshrMissLatency::total  15009886956                       # number of overall MSHR miss ticks (Tick)
system.cpu.dcache.demandMshrMissRate::cpu.data     0.132894                       # mshr miss ratio for demand accesses (Ratio)
system.cpu.dcache.demandMshrMissRate::total     0.132894                       # mshr miss ratio for demand accesses (Ratio)
system.cpu.dcache.overallMshrMissRate::cpu.data     0.132894                       # mshr miss ratio for overall accesses (Ratio)
system.cpu.dcache.overallMshrMissRate::total     0.132894                       # mshr miss ratio for overall accesses (Ratio)
system.cpu.dcache.demandAvgMshrMissLatency::cpu.data 96209.823321                       # average overall mshr miss latency ((Tick/Count))
system.cpu.dcache.demandAvgMshrMissLatency::total 96209.823321                       # average overall mshr miss latency ((Tick/Count))
system.cpu.dcache.overallAvgMshrMissLatency::cpu.data 96209.823321                       # average overall mshr miss latency ((Tick/Count))
system.cpu.dcache.overallAvgMshrMissLatency::total 96209.823321                       # average overall mshr miss latency ((Tick/Count))
system.cpu.dcache.replacements                 156011                       # number of replacements (Count)
system.cpu.dcache.ReadReq.hits::cpu.data       827424                       # number of ReadReq hits (Count)
system.cpu.dcache.ReadReq.hits::total          827424                       # number of ReadReq hits (Count)
system.cpu.dcache.ReadReq.misses::cpu.data       234965                       # number of ReadReq misses (Count)
system.cpu.dcache.ReadReq.misses::total        234965                       # number of ReadReq misses (Count)
system.cpu.dcache.ReadReq.missLatency::cpu.data   9808628500                       # number of ReadReq miss ticks (Tick)
system.cpu.dcache.ReadReq.missLatency::total   9808628500                       # number of ReadReq miss ticks (Tick)
system.cpu.dcache.ReadReq.accesses::cpu.data      1062389                       # number of ReadReq accesses(hits+misses) (Count)
system.cpu.dcache.ReadReq.accesses::total      1062389                       # number of ReadReq accesses(hits+misses) (Count)
system.cpu.dcache.ReadReq.missRate::cpu.data     0.221167                       # miss rate for ReadReq accesses (Ratio)
system.cpu.dcache.ReadReq.missRate::total     0.221167                       # miss rate for ReadReq accesses (Ratio)
system.cpu.dcache.ReadReq.avgMissLatency::cpu.data 41745.062031                       # average ReadReq miss latency ((Tick/Count))
system.cpu.dcache.ReadReq.avgMissLatency::total 41745.062031                       # average ReadReq miss latency ((Tick/Count))
system.cpu.dcache.ReadReq.mshrHits::cpu.data       182920                       # number of ReadReq MSHR hits (Count)
system.cpu.dcache.ReadReq.mshrHits::total       182920                       # number of ReadReq MSHR hits (Count)
system.cpu.dcache.ReadReq.mshrMisses::cpu.data        52045                       # number of ReadReq MSHR misses (Count)
system.cpu.dcache.ReadReq.mshrMisses::total        52045                       # number of ReadReq MSHR misses (Count)
system.cpu.dcache.ReadReq.mshrMissLatency::cpu.data   4953618000                       # number of ReadReq MSHR miss ticks (Tick)
system.cpu.dcache.ReadReq.mshrMissLatency::total   4953618000                       # number of ReadReq MSHR miss ticks (Tick)
system.cpu.dcache.ReadReq.mshrMissRate::cpu.data     0.048989                       # mshr miss rate for ReadReq accesses (Ratio)
system.cpu.dcache.ReadReq.mshrMissRate::total     0.048989                       # mshr miss rate for ReadReq accesses (Ratio)
system.cpu.dcache.ReadReq.avgMshrMissLatency::cpu.data 95179.517725                       # average ReadReq mshr miss latency ((Tick/Count))
system.cpu.dcache.ReadReq.avgMshrMissLatency::total 95179.517725                       # average ReadReq mshr miss latency ((Tick/Count))
system.cpu.dcache.WriteReq.hits::cpu.data         7601                       # number of WriteReq hits (Count)
system.cpu.dcache.WriteReq.hits::total           7601                       # number of WriteReq hits (Count)
system.cpu.dcache.WriteReq.misses::cpu.data       103967                       # number of WriteReq misses (Count)
system.cpu.dcache.WriteReq.misses::total       103967                       # number of WriteReq misses (Count)
system.cpu.dcache.WriteReq.missLatency::cpu.data  10160235956                       # number of WriteReq miss ticks (Tick)
system.cpu.dcache.WriteReq.missLatency::total  10160235956                       # number of WriteReq miss ticks (Tick)
system.cpu.dcache.WriteReq.accesses::cpu.data       111568                       # number of WriteReq accesses(hits+misses) (Count)
system.cpu.dcache.WriteReq.accesses::total       111568                       # number of WriteReq accesses(hits+misses) (Count)
system.cpu.dcache.WriteReq.missRate::cpu.data     0.931871                       # miss rate for WriteReq accesses (Ratio)
system.cpu.dcache.WriteReq.missRate::total     0.931871                       # miss rate for WriteReq accesses (Ratio)
system.cpu.dcache.WriteReq.avgMissLatency::cpu.data 97725.585580                       # average WriteReq miss latency ((Tick/Count))
system.cpu.dcache.WriteReq.avgMissLatency::total 97725.585580                       # average WriteReq miss latency ((Tick/Count))
system.cpu.dcache.WriteReq.mshrMisses::cpu.data       103967                       # number of WriteReq MSHR misses (Count)
system.cpu.dcache.WriteReq.mshrMisses::total       103967                       # number of WriteReq MSHR misses (Count)
system.cpu.dcache.WriteReq.mshrMissLatency::cpu.data  10056268956                       # number of WriteReq MSHR miss ticks (Tick)
system.cpu.dcache.WriteReq.mshrMissLatency::total  10056268956                       # number of WriteReq MSHR miss ticks (Tick)
system.cpu.dcache.WriteReq.mshrMissRate::cpu.data     0.931871                       # mshr miss rate for WriteReq accesses (Ratio)
system.cpu.dcache.WriteReq.mshrMissRate::total     0.931871                       # mshr miss rate for WriteReq accesses (Ratio)
system.cpu.dcache.WriteReq.avgMshrMissLatency::cpu.data 96725.585580                       # average WriteReq mshr miss latency ((Tick/Count))
system.cpu.dcache.WriteReq.avgMshrMissLatency::total 96725.585580                       # average WriteReq mshr miss latency ((Tick/Count))
system.cpu.dcache.power_state.pwrStateResidencyTicks::UNDEFINED   4967023000                       # Cumulative time (in ticks) in various power states (Tick)
system.cpu.dcache.tags.tagsInUse                 1024                       # Average ticks per tags in use ((Tick/Count))
system.cpu.dcache.tags.totalRefs               802208                       # Total number of references to valid blocks. (Count)
system.cpu.dcache.tags.sampledRefs             156011                       # Sample count of references to valid blocks. (Count)
system.cpu.dcache.tags.avgRefs               5.141996                       # Average number of references to valid blocks. ((Count/Count))
system.cpu.dcache.tags.warmupTick                   0                       # The tick when the warmup percentage was hit. (Tick)
system.cpu.dcache.tags.occupancies::cpu.data         1024                       # Average occupied blocks per tick, per requestor ((Count/Tick))
system.cpu.dcache.tags.avgOccs::cpu.data            1                       # Average percentage of cache occupancy ((Ratio/Tick))
system.cpu.dcache.tags.avgOccs::total               1                       # Average percentage of cache occupancy ((Ratio/Tick))
system.cpu.dcache.tags.occupanciesTaskId::1024         1024                       # Occupied blocks per task id (Count)
system.cpu.dcache.tags.ageTaskId_1024::0          394                       # Occupied blocks per task id, per block age (Count)
system.cpu.dcache.tags.ageTaskId_1024::1          624                       # Occupied blocks per task id, per block age (Count)
system.cpu.dcache.tags.ageTaskId_1024::3            6                       # Occupied blocks per task id, per block age (Count)
system.cpu.dcache.tags.ratioOccsTaskId::1024            1                       # Ratio of occupied blocks and all blocks, per task id (Ratio)
system.cpu.dcache.tags.tagAccesses            4851839                       # Number of tag accesses (Count)
system.cpu.dcache.tags.dataAccesses           4851839                       # Number of data accesses (Count)
system.cpu.dcache.tags.power_state.pwrStateResidencyTicks::UNDEFINED   4967023000                       # Cumulative time (in ticks) in various power states (Tick)
system.cpu.decode.idleCycles                   174144                       # Number of cycles decode is idle (Cycle)
system.cpu.decode.blockedCycles               6828246                       # Number of cycles decode is blocked (Cycle)
system.cpu.decode.runCycles                    635091                       # Number of cycles decode is running (Cycle)
system.cpu.decode.unblockCycles                312935                       # Number of cycles decode is unblocking (Cycle)
system.cpu.decode.squashCycles                   1255                       # Number of cycles decode is squashing (Cycle)
system.cpu.decode.branchResolved                53516                       # Number of times decode resolved a branch (Count)
system.cpu.decode.branchMispred                     2                       # Number of times decode detected a branch misprediction (Count)
system.cpu.decode.decodedInsts                7409916                       # Number of instructions handled by decode (Count)
system.cpu.fetch.icacheStallCycles             429581                       # Number of cycles fetch is stalled on an Icache miss (Cycle)
system.cpu.fetch.insts                        6489315                       # Number of instructions fetch has processed (Count)
system.cpu.fetch.branches                       54543                       # Number of branches that fetch encountered (Count)
system.cpu.fetch.predictedBranches              53530                       # Number of branches that fetch has predicted taken (Count)
system.cpu.fetch.cycles                       7520833                       # Number of cycles fetch has run and was not squashing or blocked (Cycle)
system.cpu.fetch.squashCycles                    2514                       # Number of cycles fetch has spent squashing (Cycle)
system.cpu.fetch.cacheLines                    427791                       # Number of cache lines fetched (Count)
system.cpu.fetch.icacheSquashes                    33                       # Number of outstanding Icache misses that were squashed (Count)
system.cpu.fetch.nisnDist::samples            7951671                       # Number of instructions fetched each cycle (Total) (Count)
system.cpu.fetch.nisnDist::mean              0.937727                       # Number of instructions fetched each cycle (Total) (Count)
system.cpu.fetch.nisnDist::stdev             2.442816                       # Number of instructions fetched each cycle (Total) (Count)
system.cpu.fetch.nisnDist::underflows               0      0.00%      0.00% # Number of instructions fetched each cycle (Total) (Count)
system.cpu.fetch.nisnDist::0                  6816096     85.72%     85.72% # Number of instructions fetched each cycle (Total) (Count)
system.cpu.fetch.nisnDist::1                     2058      0.03%     85.74% # Number of instructions fetched each cycle (Total) (Count)
system.cpu.fetch.nisnDist::2                   143578      1.81%     87.55% # Number of instructions fetched each cycle (Total) (Count)
system.cpu.fetch.nisnDist::3                      115      0.00%     87.55% # Number of instructions fetched each cycle (Total) (Count)
system.cpu.fetch.nisnDist::4                   130033      1.64%     89.19% # Number of instructions fetched each cycle (Total) (Count)
system.cpu.fetch.nisnDist::5                      207      0.00%     89.19% # Number of instructions fetched each cycle (Total) (Count)
system.cpu.fetch.nisnDist::6                   114790      1.44%     90.63% # Number of instructions fetched each cycle (Total) (Count)
system.cpu.fetch.nisnDist::7                     1321      0.02%     90.65% # Number of instructions fetched each cycle (Total) (Count)
system.cpu.fetch.nisnDist::8                   743473      9.35%    100.00% # Number of instructions fetched each cycle (Total) (Count)
system.cpu.fetch.nisnDist::overflows                0      0.00%    100.00% # Number of instructions fetched each cycle (Total) (Count)
system.cpu.fetch.nisnDist::min_value                0                       # Number of instructions fetched each cycle (Total) (Count)
system.cpu.fetch.nisnDist::max_value                8                       # Number of instructions fetched each cycle (Total) (Count)
system.cpu.fetch.nisnDist::total              7951671                       # Number of instructions fetched each cycle (Total) (Count)
system.cpu.fetch.branchRate                  0.006858                       # Number of branch fetches per cycle (Ratio)
system.cpu.fetch.rate                        0.815926                       # Number of inst fetches per cycle ((Count/Cycle))
system.cpu.icache.demandHits::cpu.inst         427774                       # number of demand (read+write) hits (Count)
system.cpu.icache.demandHits::total            427774                       # number of demand (read+write) hits (Count)
system.cpu.icache.overallHits::cpu.inst        427774                       # number of overall hits (Count)
system.cpu.icache.overallHits::total           427774                       # number of overall hits (Count)
system.cpu.icache.demandMisses::cpu.inst           17                       # number of demand (read+write) misses (Count)
system.cpu.icache.demandMisses::total              17                       # number of demand (read+write) misses (Count)
system.cpu.icache.overallMisses::cpu.inst           17                       # number of overall misses (Count)
system.cpu.icache.overallMisses::total             17                       # number of overall misses (Count)
system.cpu.icache.demandMissLatency::cpu.inst      1273000                       # number of demand (read+write) miss ticks (Tick)
system.cpu.icache.demandMissLatency::total      1273000                       # number of demand (read+write) miss ticks (Tick)
system.cpu.icache.overallMissLatency::cpu.inst      1273000                       # number of overall miss ticks (Tick)
system.cpu.icache.overallMissLatency::total      1273000                       # number of overall miss ticks (Tick)
system.cpu.icache.demandAccesses::cpu.inst       427791                       # number of demand (read+write) accesses (Count)
system.cpu.icache.demandAccesses::total        427791                       # number of demand (read+write) accesses (Count)
system.cpu.icache.overallAccesses::cpu.inst       427791                       # number of overall (read+write) accesses (Count)
system.cpu.icache.overallAccesses::total       427791                       # number of overall (read+write) accesses (Count)
system.cpu.icache.demandMissRate::cpu.inst     0.000040                       # miss rate for demand accesses (Ratio)
system.cpu.icache.demandMissRate::total      0.000040                       # miss rate for demand accesses (Ratio)
system.cpu.icache.overallMissRate::cpu.inst     0.000040                       # miss rate for overall accesses (Ratio)
system.cpu.icache.overallMissRate::total     0.000040                       # miss rate for overall accesses (Ratio)
system.cpu.icache.demandAvgMissLatency::cpu.inst 74882.352941                       # average overall miss latency in ticks ((Tick/Count))
system.cpu.icache.demandAvgMissLatency::total 74882.352941                       # average overall miss latency in ticks ((Tick/Count))
system.cpu.icache.overallAvgMissLatency::cpu.inst 74882.352941                       # average overall miss latency ((Tick/Count))
system.cpu.icache.overallAvgMissLatency::total 74882.352941                       # average overall miss latency ((Tick/Count))
system.cpu.icache.blockedCycles::no_mshrs            0                       # number of cycles access was blocked (Cycle)
system.cpu.icache.blockedCycles::no_targets            0                       # number of cycles access was blocked (Cycle)
system.cpu.icache.blockedCauses::no_mshrs            0                       # number of times access was blocked (Count)
system.cpu.icache.blockedCauses::no_targets            0                       # number of times access was blocked (Count)
system.cpu.icache.avgBlocked::no_mshrs            nan                       # average number of cycles each access was blocked ((Cycle/Count))
system.cpu.icache.avgBlocked::no_targets          nan                       # average number of cycles each access was blocked ((Cycle/Count))
system.cpu.icache.writebacks::writebacks           16                       # number of writebacks (Count)
system.cpu.icache.writebacks::total                16                       # number of writebacks (Count)
system.cpu.icache.demandMshrHits::cpu.inst            2                       # number of demand (read+write) MSHR hits (Count)
system.cpu.icache.demandMshrHits::total             2                       # number of demand (read+write) MSHR hits (Count)
system.cpu.icache.overallMshrHits::cpu.inst            2                       # number of overall MSHR hits (Count)
system.cpu.icache.overallMshrHits::total            2                       # number of overall MSHR hits (Count)
system.cpu.icache.demandMshrMisses::cpu.inst           15                       # number of demand (read+write) MSHR misses (Count)
system.cpu.icache.demandMshrMisses::total           15                       # number of demand (read+write) MSHR misses (Count)
system.cpu.icache.overallMshrMisses::cpu.inst           15                       # number of overall MSHR misses (Count)
system.cpu.icache.overallMshrMisses::total           15                       # number of overall MSHR misses (Count)
system.cpu.icache.demandMshrMissLatency::cpu.inst      1208000                       # number of demand (read+write) MSHR miss ticks (Tick)
system.cpu.icache.demandMshrMissLatency::total      1208000                       # number of demand (read+write) MSHR miss ticks (Tick)
system.cpu.icache.overallMshrMissLatency::cpu.inst      1208000                       # number of overall MSHR miss ticks (Tick)
system.cpu.icache.overallMshrMissLatency::total      1208000                       # number of overall MSHR miss ticks (Tick)
system.cpu.icache.demandMshrMissRate::cpu.inst     0.000035                       # mshr miss ratio for demand accesses (Ratio)
system.cpu.icache.demandMshrMissRate::total     0.000035                       # mshr miss ratio for demand accesses (Ratio)
system.cpu.icache.overallMshrMissRate::cpu.inst     0.000035                       # mshr miss ratio for overall accesses (Ratio)
system.cpu.icache.overallMshrMissRate::total     0.000035                       # mshr miss ratio for overall accesses (Ratio)
system.cpu.icache.demandAvgMshrMissLatency::cpu.inst 80533.333333                       # average overall mshr miss latency ((Tick/Count))
system.cpu.icache.demandAvgMshrMissLatency::total 80533.333333                       # average overall mshr miss latency ((Tick/Count))
system.cpu.icache.overallAvgMshrMissLatency::cpu.inst 80533.333333                       # average overall mshr miss latency ((Tick/Count))
system.cpu.icache.overallAvgMshrMissLatency::total 80533.333333                       # average overall mshr miss latency ((Tick/Count))
system.cpu.icache.replacements                     16                       # number of replacements (Count)
system.cpu.icache.ReadReq.hits::cpu.inst       427774                       # number of ReadReq hits (Count)
system.cpu.icache.ReadReq.hits::total          427774                       # number of ReadReq hits (Count)
system.cpu.icache.ReadReq.misses::cpu.inst           17                       # number of ReadReq misses (Count)
system.cpu.icache.ReadReq.misses::total            17                       # number of ReadReq misses (Count)
system.cpu.icache.ReadReq.missLatency::cpu.inst      1273000                       # number of ReadReq miss ticks (Tick)
system.cpu.icache.ReadReq.missLatency::total      1273000                       # number of ReadReq miss ticks (Tick)
system.cpu.icache.ReadReq.accesses::cpu.inst       427791                       # number of ReadReq accesses(hits+misses) (Count)
system.cpu.icache.ReadReq.accesses::total       427791                       # number of ReadReq accesses(hits+misses) (Count)
system.cpu.icache.ReadReq.missRate::cpu.inst     0.000040                       # miss rate for ReadReq accesses (Ratio)
system.cpu.icache.ReadReq.missRate::total     0.000040                       # miss rate for ReadReq accesses (Ratio)
system.cpu.icache.ReadReq.avgMissLatency::cpu.inst 74882.352941                       # average ReadReq miss latency ((Tick/Count))
system.cpu.icache.ReadReq.avgMissLatency::total 74882.352941                       # average ReadReq miss latency ((Tick/Count))
system.cpu.icache.ReadReq.mshrHits::cpu.inst            2                       # number of ReadReq MSHR hits (Count)
system.cpu.icache.ReadReq.mshrHits::total            2                       # number of ReadReq MSHR hits (Count)
system.cpu.icache.ReadReq.mshrMisses::cpu.inst           15                       # number of ReadReq MSHR misses (Count)
system.cpu.icache.ReadReq.mshrMisses::total           15                       # number of ReadReq MSHR misses (Count)
system.cpu.icache.ReadReq.mshrMissLatency::cpu.inst      1208000                       # number of ReadReq MSHR miss ticks (Tick)
system.cpu.icache.ReadReq.mshrMissLatency::total      1208000                       # number of ReadReq MSHR miss ticks (Tick)
system.cpu.icache.ReadReq.mshrMissRate::cpu.inst     0.000035                       # mshr miss rate for ReadReq accesses (Ratio)
system.cpu.icache.ReadReq.mshrMissRate::total     0.000035                       # mshr miss rate for ReadReq accesses (Ratio)
system.cpu.icache.ReadReq.avgMshrMissLatency::cpu.inst 80533.333333                       # average ReadReq mshr miss latency ((Tick/Count))
system.cpu.icache.ReadReq.avgMshrMissLatency::total 80533.333333                       # average ReadReq mshr miss latency ((Tick/Count))
system.cpu.icache.power_state.pwrStateResidencyTicks::UNDEFINED   4967023000                       # Cumulative time (in ticks) in various power states (Tick)
system.cpu.icache.tags.tagsInUse                  256                       # Average ticks per tags in use ((Tick/Count))
system.cpu.icache.tags.totalRefs                   81                       # Total number of references to valid blocks. (Count)
system.cpu.icache.tags.sampledRefs                 16                       # Sample count of references to valid blocks. (Count)
system.cpu.icache.tags.avgRefs               5.062500                       # Average number of references to valid blocks. ((Count/Count))
system.cpu.icache.tags.warmupTick                   0                       # The tick when the warmup percentage was hit. (Tick)
system.cpu.icache.tags.occupancies::cpu.inst          256                       # Average occupied blocks per tick, per requestor ((Count/Tick))
system.cpu.icache.tags.avgOccs::cpu.inst            1                       # Average percentage of cache occupancy ((Ratio/Tick))
system.cpu.icache.tags.avgOccs::total               1                       # Average percentage of cache occupancy ((Ratio/Tick))
system.cpu.icache.tags.occupanciesTaskId::1024          256                       # Occupied blocks per task id (Count)
system.cpu.icache.tags.ageTaskId_1024::3          256                       # Occupied blocks per task id, per block age (Count)
system.cpu.icache.tags.ratioOccsTaskId::1024            1                       # Ratio of occupied blocks and all blocks, per task id (Ratio)
system.cpu.icache.tags.tagAccesses            1711180                       # Number of tag accesses (Count)
system.cpu.icache.tags.dataAccesses           1711180                       # Number of data accesses (Count)
system.cpu.icache.tags.power_state.pwrStateResidencyTicks::UNDEFINED   4967023000                       # Cumulative time (in ticks) in various power states (Tick)
system.cpu.iew.idleCycles                           0                       # Number of cycles IEW is idle (Cycle)
system.cpu.iew.squashCycles                      1255                       # Number of cycles IEW is squashing (Cycle)
system.cpu.iew.blockCycles                    4207064                       # Number of cycles IEW is blocking (Cycle)
system.cpu.iew.unblockCycles                    37000                       # Number of cycles IEW is unblocking (Cycle)
system.cpu.iew.dispatchedInsts                7397124                       # Number of instructions dispatched to IQ (Count)
system.cpu.iew.dispSquashedInsts                  748                       # Number of squashed instructions skipped by dispatch (Count)
system.cpu.iew.dispLoadInsts                  1063118                       # Number of dispatched load instructions (Count)
system.cpu.iew.dispStoreInsts                  112858                       # Number of dispatched store instructions (Count)
system.cpu.iew.dispNonSpecInsts                     2                       # Number of dispatched non-speculative instructions (Count)
system.cpu.iew.iqFullEvents                     30547                       # Number of times the IQ has become full, causing a stall (Count)
system.cpu.iew.lsqFullEvents                     2198                       # Number of times the LSQ has become full, causing a stall (Count)
system.cpu.iew.memOrderViolationEvents             16                       # Number of memory order violations (Count)
system.cpu.iew.predictedTakenIncorrect            930                       # Number of branches that were predicted taken incorrectly (Count)
system.cpu.iew.predictedNotTakenIncorrect           16                       # Number of branches that were predicted not taken incorrectly (Count)
system.cpu.iew.branchMispredicts                  946                       # Number of branch mispredicts detected at execute (Count)
system.cpu.iew.instsToCommit                  7384961                       # Cumulative count of insts sent to commit (Count)
system.cpu.iew.writebackCount                 7383749                       # Cumulative count of insts written-back (Count)
system.cpu.iew.producerInst                   5206962                       # Number of instructions producing a value (Count)
system.cpu.iew.consumerInst                   7634429                       # Number of instructions consuming a value (Count)
system.cpu.iew.wbRate                        0.928386                       # Insts written-back per cycle ((Count/Cycle))
system.cpu.iew.wbFanout                      0.682037                       # Average fanout of values written-back ((Count/Count))
system.cpu.lsq0.forwLoads                           0                       # Number of loads that had data forwarded from stores (Count)
system.cpu.lsq0.squashedLoads                    6797                       # Number of loads squashed (Count)
system.cpu.lsq0.ignoredResponses                    0                       # Number of memory responses ignored because the instruction is squashed (Count)
system.cpu.lsq0.memOrderViolation                  16                       # Number of memory ordering violations (Count)
system.cpu.lsq0.squashedStores                   1294                       # Number of stores squashed (Count)
system.cpu.lsq0.rescheduledLoads                 4598                       # Number of loads that were rescheduled (Count)
system.cpu.lsq0.blockedByCache                  87040                       # Number of times an access to memory failed due to the cache being blocked (Count)
system.cpu.lsq0.loadToUse::samples            1056319                       # Distribution of cycle latency between the first time a load is issued and its completion (Unspecified)
system.cpu.lsq0.loadToUse::mean            102.820100                       # Distribution of cycle latency between the first time a load is issued and its completion (Unspecified)
system.cpu.lsq0.loadToUse::stdev           111.977072                       # Distribution of cycle latency between the first time a load is issued and its completion (Unspecified)
system.cpu.lsq0.loadToUse::0-9                 169582     16.05%     16.05% # Distribution of cycle latency between the first time a load is issued and its completion (Unspecified)
system.cpu.lsq0.loadToUse::10-19               107739     10.20%     26.25% # Distribution of cycle latency between the first time a load is issued and its completion (Unspecified)
system.cpu.lsq0.loadToUse::20-29                58487      5.54%     31.79% # Distribution of cycle latency between the first time a load is issued and its completion (Unspecified)
system.cpu.lsq0.loadToUse::30-39                19825      1.88%     33.67% # Distribution of cycle latency between the first time a load is issued and its completion (Unspecified)
system.cpu.lsq0.loadToUse::40-49                25699      2.43%     36.10% # Distribution of cycle latency between the first time a load is issued and its completion (Unspecified)
system.cpu.lsq0.loadToUse::50-59                35130      3.33%     39.43% # Distribution of cycle latency between the first time a load is issued and its completion (Unspecified)
system.cpu.lsq0.loadToUse::60-69                42804      4.05%     43.48% # Distribution of cycle latency between the first time a load is issued and its completion (Unspecified)
system.cpu.lsq0.loadToUse::70-79                48888      4.63%     48.11% # Distribution of cycle latency between the first time a load is issued and its completion (Unspecified)
system.cpu.lsq0.loadToUse::80-89                23239      2.20%     50.31% # Distribution of cycle latency between the first time a load is issued and its completion (Unspecified)
system.cpu.lsq0.loadToUse::90-99                18363      1.74%     52.04% # Distribution of cycle latency between the first time a load is issued and its completion (Unspecified)
system.cpu.lsq0.loadToUse::100-109              55639      5.27%     57.31% # Distribution of cycle latency between the first time a load is issued and its completion (Unspecified)
system.cpu.lsq0.loadToUse::110-119             164046     15.53%     72.84% # Distribution of cycle latency between the first time a load is issued and its completion (Unspecified)
system.cpu.lsq0.loadToUse::120-129              74934      7.09%     79.94% # Distribution of cycle latency between the first time a load is issued and its completion (Unspecified)
system.cpu.lsq0.loadToUse::130-139              27070      2.56%     82.50% # Distribution of cycle latency between the first time a load is issued and its completion (Unspecified)
system.cpu.lsq0.loadToUse::140-149              34985      3.31%     85.81% # Distribution of cycle latency between the first time a load is issued and its completion (Unspecified)
system.cpu.lsq0.loadToUse::150-159              15297      1.45%     87.26% # Distribution of cycle latency between the first time a load is issued and its completion (Unspecified)
system.cpu.lsq0.loadToUse::160-169               2716      0.26%     87.52% # Distribution of cycle latency between the first time a load is issued and its completion (Unspecified)
system.cpu.lsq0.loadToUse::170-179               3610      0.34%     87.86% # Distribution of cycle latency between the first time a load is issued and its completion (Unspecified)
system.cpu.lsq0.loadToUse::180-189               3441      0.33%     88.18% # Distribution of cycle latency between the first time a load is issued and its completion (Unspecified)
system.cpu.lsq0.loadToUse::190-199               2541      0.24%     88.42% # Distribution of cycle latency between the first time a load is issued and its completion (Unspecified)
system.cpu.lsq0.loadToUse::200-209               2690      0.25%     88.68% # Distribution of cycle latency between the first time a load is issued and its completion (Unspecified)
system.cpu.lsq0.loadToUse::210-219               3211      0.30%     88.98% # Distribution of cycle latency between the first time a load is issued and its completion (Unspecified)
system.cpu.lsq0.loadToUse::220-229               1726      0.16%     89.15% # Distribution of cycle latency between the first time a load is issued and its completion (Unspecified)
system.cpu.lsq0.loadToUse::230-239               1997      0.19%     89.33% # Distribution of cycle latency between the first time a load is issued and its completion (Unspecified)
system.cpu.lsq0.loadToUse::240-249               4591      0.43%     89.77% # Distribution of cycle latency between the first time a load is issued and its completion (Unspecified)
system.cpu.lsq0.loadToUse::250-259               6608      0.63%     90.39% # Distribution of cycle latency between the first time a load is issued and its completion (Unspecified)
system.cpu.lsq0.loadToUse::260-269               5487      0.52%     90.91% # Distribution of cycle latency between the first time a load is issued and its completion (Unspecified)
system.cpu.lsq0.loadToUse::270-279               6581      0.62%     91.54% # Distribution of cycle latency between the first time a load is issued and its completion (Unspecified)
system.cpu.lsq0.loadToUse::280-289               5502      0.52%     92.06% # Distribution of cycle latency between the first time a load is issued and its completion (Unspecified)
system.cpu.lsq0.loadToUse::290-299               3035      0.29%     92.35% # Distribution of cycle latency between the first time a load is issued and its completion (Unspecified)
system.cpu.lsq0.loadToUse::overflows            80856      7.65%    100.00% # Distribution of cycle latency between the first time a load is issued and its completion (Unspecified)
system.cpu.lsq0.loadToUse::min_value                3                       # Distribution of cycle latency between the first time a load is issued and its completion (Unspecified)
system.cpu.lsq0.loadToUse::max_value             1219                       # Distribution of cycle latency between the first time a load is issued and its completion (Unspecified)
system.cpu.lsq0.loadToUse::total              1056319                       # Distribution of cycle latency between the first time a load is issued and its completion (Unspecified)
system.cpu.mmu.alignFaults                          0                       # Number of MMU faults due to alignment restrictions (Count)
system.cpu.mmu.prefetchFaults                       0                       # Number of MMU faults due to prefetch (Count)
system.cpu.mmu.domainFaults                         0                       # Number of MMU faults due to domain restrictions (Count)
system.cpu.mmu.permsFaults                          0                       # Number of MMU faults due to permissions restrictions (Count)
system.cpu.mmu.dtb.readHits                         0                       # Read hits (Count)
system.cpu.mmu.dtb.readMisses                       0                       # Read misses (Count)
system.cpu.mmu.dtb.writeHits                        0                       # Write hits (Count)
system.cpu.mmu.dtb.writeMisses                      0                       # Write misses (Count)
system.cpu.mmu.dtb.inserts                          0                       # Number of times an entry is inserted into the TLB (Count)
[...]
system.mem_ctrls.dram.perBankWrBursts::10            6                       # Per bank write bursts (Count)
system.mem_ctrls.dram.perBankWrBursts::11            7                       # Per bank write bursts (Count)
system.mem_ctrls.dram.perBankWrBursts::12            0                       # Per bank write bursts (Count)
system.mem_ctrls.dram.perBankWrBursts::13            4                       # Per bank write bursts (Count)
system.mem_ctrls.dram.perBankWrBursts::14           46                       # Per bank write bursts (Count)
system.mem_ctrls.dram.perBankWrBursts::15          102                       # Per bank write bursts (Count)
system.mem_ctrls.dram.totQLat                14304500                       # Total ticks spent queuing (Tick)
system.mem_ctrls.dram.totBusLat               2665000                       # Total ticks spent in databus transfers (Tick)
system.mem_ctrls.dram.totMemAccLat           24298250                       # Total ticks spent from burst creation until serviced by the DRAM (Tick)
system.mem_ctrls.dram.avgQLat                26837.71                       # Average queueing delay per DRAM burst ((Tick/Count))
system.mem_ctrls.dram.avgBusLat               5000.00                       # Average bus latency per DRAM burst ((Tick/Count))
system.mem_ctrls.dram.avgMemAccLat           45587.71                       # Average memory access latency per DRAM burst ((Tick/Count))
system.mem_ctrls.dram.readRowHits                 314                       # Number of row buffer hits during reads (Count)
system.mem_ctrls.dram.writeRowHits                411                       # Number of row buffer hits during writes (Count)
system.mem_ctrls.dram.readRowHitRate            58.91                       # Row buffer hit rate for reads (Ratio)
system.mem_ctrls.dram.writeRowHitRate           80.75                       # Row buffer hit rate for writes (Ratio)
system.mem_ctrls.dram.bytesPerActivate::samples          310                       # Bytes accessed per row activation (Byte)
system.mem_ctrls.dram.bytesPerActivate::mean   214.296774                       # Bytes accessed per row activation (Byte)
system.mem_ctrls.dram.bytesPerActivate::gmean   143.008417                       # Bytes accessed per row activation (Byte)
system.mem_ctrls.dram.bytesPerActivate::stdev   219.852471                       # Bytes accessed per row activation (Byte)
system.mem_ctrls.dram.bytesPerActivate::0-127          139     44.84%     44.84% # Bytes accessed per row activation (Byte)
system.mem_ctrls.dram.bytesPerActivate::128-255           75     24.19%     69.03% # Bytes accessed per row activation (Byte)
system.mem_ctrls.dram.bytesPerActivate::256-383           42     13.55%     82.58% # Bytes accessed per row activation (Byte)
system.mem_ctrls.dram.bytesPerActivate::384-511           16      5.16%     87.74% # Bytes accessed per row activation (Byte)
system.mem_ctrls.dram.bytesPerActivate::512-639           15      4.84%     92.58% # Bytes accessed per row activation (Byte)
system.mem_ctrls.dram.bytesPerActivate::640-767           10      3.23%     95.81% # Bytes accessed per row activation (Byte)
system.mem_ctrls.dram.bytesPerActivate::768-895            4      1.29%     97.10% # Bytes accessed per row activation (Byte)
system.mem_ctrls.dram.bytesPerActivate::896-1023            3      0.97%     98.06% # Bytes accessed per row activation (Byte)
system.mem_ctrls.dram.bytesPerActivate::1024-1151            6      1.94%    100.00% # Bytes accessed per row activation (Byte)
system.mem_ctrls.dram.bytesPerActivate::total          310                       # Bytes accessed per row activation (Byte)
system.mem_ctrls.dram.bytesRead                 34112                       # Total bytes read (Byte)
system.mem_ctrls.dram.bytesWritten              32576                       # Total bytes written (Byte)
system.mem_ctrls.dram.avgRdBW             1205.498816                       # Average DRAM read bandwidth in MiBytes/s ((Byte/Second))
system.mem_ctrls.dram.avgWrBW             1151.217444                       # Average DRAM write bandwidth in MiBytes/s ((Byte/Second))
system.mem_ctrls.dram.peakBW                 12800.00                       # Theoretical peak bandwidth in MiByte/s ((Byte/Second))
system.mem_ctrls.dram.busUtil                   18.41                       # Data bus utilization in percentage (Ratio)
system.mem_ctrls.dram.busUtilRead                9.42                       # Data bus utilization in percentage for reads (Ratio)
system.mem_ctrls.dram.busUtilWrite               8.99                       # Data bus utilization in percentage for writes (Ratio)
system.mem_ctrls.dram.pageHitRate               69.58                       # Row buffer hit rate, read and write combined (Ratio)
system.mem_ctrls.dram.power_state.pwrStateResidencyTicks::UNDEFINED     28297000                       # Cumulative time (in ticks) in various power states (Tick)
system.mem_ctrls.dram.rank0.actEnergy         1235220                       # Energy for activate commands per rank (pJ) (Joule)
system.mem_ctrls.dram.rank0.preEnergy          637560                       # Energy for precharge commands per rank (pJ) (Joule)
system.mem_ctrls.dram.rank0.readEnergy        1999200                       # Energy for read commands per rank (pJ) (Joule)
system.mem_ctrls.dram.rank0.writeEnergy       1659960                       # Energy for write commands per rank (pJ) (Joule)
system.mem_ctrls.dram.rank0.refreshEnergy 2458560.000000                       # Energy for refresh commands per rank (pJ) (Joule)
system.mem_ctrls.dram.rank0.actBackEnergy     12626640                       # Energy for active background per rank (pJ) (Joule)
system.mem_ctrls.dram.rank0.preBackEnergy       232800                       # Energy for precharge background per rank (pJ) (Joule)
system.mem_ctrls.dram.rank0.actPowerDownEnergy            0                       # Energy for active power-down per rank (pJ) (Joule)
system.mem_ctrls.dram.rank0.prePowerDownEnergy            0                       # Energy for precharge power-down per rank (pJ) (Joule)
system.mem_ctrls.dram.rank0.selfRefreshEnergy            0                       # Energy for self refresh per rank (pJ) (Joule)
system.mem_ctrls.dram.rank0.totalEnergy      20849940                       # Total energy per rank (pJ) (Joule)
system.mem_ctrls.dram.rank0.averagePower   736.825105                       # Core power per rank (mW) (Watt)
system.mem_ctrls.dram.rank0.totalIdleTime            0                       # Total Idle time Per DRAM Rank (Tick)
system.mem_ctrls.dram.rank0.pwrStateTime::IDLE       496000                       # Time in different power states (Tick)
system.mem_ctrls.dram.rank0.pwrStateTime::REF      1040000                       # Time in different power states (Tick)
system.mem_ctrls.dram.rank0.pwrStateTime::SREF            0                       # Time in different power states (Tick)
system.mem_ctrls.dram.rank0.pwrStateTime::PRE_PDN            0                       # Time in different power states (Tick)
system.mem_ctrls.dram.rank0.pwrStateTime::ACT     26761000                       # Time in different power states (Tick)
system.mem_ctrls.dram.rank0.pwrStateTime::ACT_PDN            0                       # Time in different power states (Tick)
system.mem_ctrls.dram.rank1.actEnergy         1028160                       # Energy for activate commands per rank (pJ) (Joule)
system.mem_ctrls.dram.rank1.preEnergy          538890                       # Energy for precharge commands per rank (pJ) (Joule)
system.mem_ctrls.dram.rank1.readEnergy        1806420                       # Energy for read commands per rank (pJ) (Joule)
system.mem_ctrls.dram.rank1.writeEnergy        997020                       # Energy for write commands per rank (pJ) (Joule)
system.mem_ctrls.dram.rank1.refreshEnergy 2458560.000000                       # Energy for refresh commands per rank (pJ) (Joule)
system.mem_ctrls.dram.rank1.actBackEnergy     12597570                       # Energy for active background per rank (pJ) (Joule)
system.mem_ctrls.dram.rank1.preBackEnergy       257280                       # Energy for precharge background per rank (pJ) (Joule)
system.mem_ctrls.dram.rank1.actPowerDownEnergy            0                       # Energy for active power-down per rank (pJ) (Joule)
system.mem_ctrls.dram.rank1.prePowerDownEnergy            0                       # Energy for precharge power-down per rank (pJ) (Joule)
system.mem_ctrls.dram.rank1.selfRefreshEnergy            0                       # Energy for self refresh per rank (pJ) (Joule)
system.mem_ctrls.dram.rank1.totalEnergy      19683900                       # Total energy per rank (pJ) (Joule)
system.mem_ctrls.dram.rank1.averagePower   695.617910                       # Core power per rank (mW) (Watt)
system.mem_ctrls.dram.rank1.totalIdleTime            0                       # Total Idle time Per DRAM Rank (Tick)
system.mem_ctrls.dram.rank1.pwrStateTime::IDLE       560750                       # Time in different power states (Tick)
system.mem_ctrls.dram.rank1.pwrStateTime::REF      1040000                       # Time in different power states (Tick)
system.mem_ctrls.dram.rank1.pwrStateTime::SREF            0                       # Time in different power states (Tick)
system.mem_ctrls.dram.rank1.pwrStateTime::PRE_PDN            0                       # Time in different power states (Tick)
system.mem_ctrls.dram.rank1.pwrStateTime::ACT     26696250                       # Time in different power states (Tick)
system.mem_ctrls.dram.rank1.pwrStateTime::ACT_PDN            0                       # Time in different power states (Tick)
system.mem_ctrls.power_state.pwrStateResidencyTicks::UNDEFINED     28297000                       # Cumulative time (in ticks) in various power states (Tick)
system.membus.transDist::ReadResp                 511                       # Transaction distribution (Count)
system.membus.transDist::WritebackDirty           511                       # Transaction distribution (Count)
system.membus.transDist::CleanEvict               195                       # Transaction distribution (Count)
system.membus.transDist::ReadExReq                 22                       # Transaction distribution (Count)
system.membus.transDist::ReadExResp                22                       # Transaction distribution (Count)
system.membus.transDist::ReadSharedReq            511                       # Transaction distribution (Count)
system.membus.transDist::InvalidateReq              1                       # Transaction distribution (Count)
system.membus.pktCount_system.l2.mem_side_port::system.mem_ctrls.port         1773                       # Packet count per connected requestor and responder (Count)
system.membus.pktCount::total                    1773                       # Packet count per connected requestor and responder (Count)
system.membus.pktSize_system.l2.mem_side_port::system.mem_ctrls.port        66816                       # Cumulative packet size per connected requestor and responder (Byte)
system.membus.pktSize::total                    66816                       # Cumulative packet size per connected requestor and responder (Byte)
system.membus.snoops                                0                       # Total snoops (Count)
system.membus.snoopTraffic                          0                       # Total snoop traffic (Byte)
system.membus.snoopFanout::samples                534                       # Request fanout histogram (Count)
system.membus.snoopFanout::mean                     0                       # Request fanout histogram (Count)
system.membus.snoopFanout::stdev                    0                       # Request fanout histogram (Count)
system.membus.snoopFanout::underflows               0      0.00%      0.00% # Request fanout histogram (Count)
system.membus.snoopFanout::0                      534    100.00%    100.00% # Request fanout histogram (Count)
system.membus.snoopFanout::1                        0      0.00%    100.00% # Request fanout histogram (Count)
system.membus.snoopFanout::overflows                0      0.00%    100.00% # Request fanout histogram (Count)
system.membus.snoopFanout::min_value                0                       # Request fanout histogram (Count)
system.membus.snoopFanout::max_value                0                       # Request fanout histogram (Count)
system.membus.snoopFanout::total                  534                       # Request fanout histogram (Count)
system.membus.power_state.pwrStateResidencyTicks::UNDEFINED     28297000                       # Cumulative time (in ticks) in various power states (Tick)
system.membus.reqLayer0.occupancy             3411500                       # Layer occupancy (ticks) (Tick)
system.membus.reqLayer0.utilization               0.1                       # Layer utilization (Ratio)
system.membus.respLayer1.occupancy            2865000                       # Layer occupancy (ticks) (Tick)
system.membus.respLayer1.utilization              0.1                       # Layer utilization (Ratio)
system.membus.snoop_filter.totRequests           1240                       # Total number of requests made to the snoop filter. (Count)
system.membus.snoop_filter.hitSingleRequests          706                       # Number of requests hitting in the snoop filter with a single holder of the requested data. (Count)
system.membus.snoop_filter.hitMultiRequests            0                       # Number of requests hitting in the snoop filter with multiple (>1) holders of the requested data. (Count)
system.membus.snoop_filter.totSnoops                0                       # Total number of snoops made to the snoop filter. (Count)
system.membus.snoop_filter.hitSingleSnoops            0                       # Number of snoops hitting in the snoop filter with a single holder of the requested data. (Count)
system.membus.snoop_filter.hitMultiSnoops            0                       # Number of snoops hitting in the snoop filter with multiple (>1) holders of the requested data. (Count)
system.tol2bus.transDist::ReadResp                533                       # Transaction distribution (Count)
system.tol2bus.transDist::WritebackDirty          730                       # Transaction distribution (Count)
system.tol2bus.transDist::WritebackClean          217                       # Transaction distribution (Count)
system.tol2bus.transDist::CleanEvict              315                       # Transaction distribution (Count)
system.tol2bus.transDist::ReadExReq                22                       # Transaction distribution (Count)
system.tol2bus.transDist::ReadExResp               22                       # Transaction distribution (Count)
system.tol2bus.transDist::ReadCleanReq            218                       # Transaction distribution (Count)
system.tol2bus.transDist::ReadSharedReq           315                       # Transaction distribution (Count)
system.tol2bus.transDist::InvalidateReq             1                       # Transaction distribution (Count)
system.tol2bus.transDist::InvalidateResp            1                       # Transaction distribution (Count)
system.tol2bus.pktCount_system.cpu.icache.mem_side_port::system.l2.cpu_side_port          652                       # Packet count per connected requestor and responder (Count)
system.tol2bus.pktCount_system.cpu.dcache.mem_side_port::system.l2.cpu_side_port         1016                       # Packet count per connected requestor and responder (Count)
system.tol2bus.pktCount::total                   1668                       # Packet count per connected requestor and responder (Count)
system.tol2bus.pktSize_system.cpu.icache.mem_side_port::system.l2.cpu_side_port        27776                       # Cumulative packet size per connected requestor and responder (Byte)
system.tol2bus.pktSize_system.cpu.dcache.mem_side_port::system.l2.cpu_side_port        35712                       # Cumulative packet size per connected requestor and responder (Byte)
system.tol2bus.pktSize::total                   63488                       # Cumulative packet size per connected requestor and responder (Byte)
system.tol2bus.snoops                             706                       # Total snoops (Count)
system.tol2bus.snoopTraffic                     32640                       # Total snoop traffic (Byte)
system.tol2bus.snoopFanout::samples              1262                       # Request fanout histogram (Count)
system.tol2bus.snoopFanout::mean                    0                       # Request fanout histogram (Count)
system.tol2bus.snoopFanout::stdev                   0                       # Request fanout histogram (Count)
system.tol2bus.snoopFanout::underflows              0      0.00%      0.00% # Request fanout histogram (Count)
system.tol2bus.snoopFanout::0                    1262    100.00%    100.00% # Request fanout histogram (Count)
system.tol2bus.snoopFanout::1                       0      0.00%    100.00% # Request fanout histogram (Count)
system.tol2bus.snoopFanout::2                       0      0.00%    100.00% # Request fanout histogram (Count)
system.tol2bus.snoopFanout::overflows               0      0.00%    100.00% # Request fanout histogram (Count)
system.tol2bus.snoopFanout::min_value               0                       # Request fanout histogram (Count)
system.tol2bus.snoopFanout::max_value               0                       # Request fanout histogram (Count)
system.tol2bus.snoopFanout::total                1262                       # Request fanout histogram (Count)
system.tol2bus.power_state.pwrStateResidencyTicks::UNDEFINED     28297000                       # Cumulative time (in ticks) in various power states (Tick)
system.tol2bus.reqLayer0.occupancy             993000                       # Layer occupancy (ticks) (Tick)
system.tol2bus.reqLayer0.utilization              0.0                       # Layer utilization (Ratio)
system.tol2bus.respLayer0.occupancy            325500                       # Layer occupancy (ticks) (Tick)
system.tol2bus.respLayer0.utilization             0.0                       # Layer utilization (Ratio)
system.tol2bus.respLayer1.occupancy            507500                       # Layer occupancy (ticks) (Tick)
system.tol2bus.respLayer1.utilization             0.0                       # Layer utilization (Ratio)
system.tol2bus.snoop_filter.totRequests          1112                       # Total number of requests made to the snoop filter. (Count)
system.tol2bus.snoop_filter.hitSingleRequests          556                       # Number of requests hitting in the snoop filter with a single holder of the requested data. (Count)
system.tol2bus.snoop_filter.hitMultiRequests            0                       # Number of requests hitting in the snoop filter with multiple (>1) holders of the requested data. (Count)
system.tol2bus.snoop_filter.totSnoops               0                       # Total number of snoops made to the snoop filter. (Count)
system.tol2bus.snoop_filter.hitSingleSnoops            0                       # Number of snoops hitting in the snoop filter with a single holder of the requested data. (Count)
system.tol2bus.snoop_filter.hitMultiSnoops            0                       # Number of snoops hitting in the snoop filter with multiple (>1) holders of the requested data. (Count)
system.voltage_domain.voltage                       1                       # Voltage in Volts (Volt)
system.workload.inst.arm                            0                       # number of arm instructions executed (Count)
system.workload.inst.quiesce                        0                       # number of quiesce instructions executed (Count)

---------- End Simulation Statistics   ----------
