
---------- Begin Simulation Statistics ----------
simSeconds                                   0.076205                       # Number of seconds simulated (Second)
simTicks                                  76204661500                       # Number of ticks simulated (Tick)
finalTick                                 76204661500                       # Number of ticks from beginning of simulation (restored from checkpoints and never reset) (Tick)
simFreq                                  1000000000000                       # The number of ticks per simulated second ((Tick/Second))
hostSeconds                                    545.61                       # Real time elapsed on the host (Second)
hostTickRate                                139668340                       # The number of ticks simulated per host second (ticks/s) ((Tick/Second))
hostMemory                                     680124                       # Number of bytes of host memory used (Byte)
simInsts                                    119119510                       # Number of instructions simulated (Count)
simOps                                      143858378                       # Number of ops (including micro ops) simulated (Count)
hostInstRate                                   218323                       # Simulator instruction rate (inst/s) ((Count/Second))
hostOpRate                                     263664                       # Simulator op (including micro ops) rate (op/s) ((Count/Second))
system.clk_domain.clock                          1000                       # Clock period in ticks (Tick)
system.cpu.numCycles                        152409324                       # Number of cpu cycles simulated (Cycle)
system.cpu.numWorkItemsStarted                      0                       # Number of work items this cpu started (Count)
system.cpu.numWorkItemsCompleted                    0                       # Number of work items this cpu completed (Count)
system.cpu.instsAdded                       144963687                       # Number of instructions added to the IQ (excludes non-spec) (Count)
system.cpu.nonSpecInstsAdded                      178                       # Number of non-speculative instructions added to the IQ (Count)
system.cpu.instsIssued                      147214987                       # Number of instructions issued (Count)
system.cpu.squashedInstsIssued                   3449                       # Number of squashed instructions issued (Count)
system.cpu.squashedInstsExamined              1105310                       # Number of squashed instructions iterated over during squash; mainly for profiling (Count)
system.cpu.squashedOperandsExamined           1335548                       # Number of squashed operands that are examined and possibly removed from graph (Count)
system.cpu.squashedNonSpecRemoved                  59                       # Number of squashed non-spec instructions that were removed (Count)
system.cpu.numIssuedDist::samples           152287494                       # Number of insts issued each cycle (Count)
system.cpu.numIssuedDist::mean               0.966691                       # Number of insts issued each cycle (Count)
system.cpu.numIssuedDist::stdev              1.973389                       # Number of insts issued each cycle (Count)
system.cpu.numIssuedDist::underflows                0      0.00%      0.00% # Number of insts issued each cycle (Count)
system.cpu.numIssuedDist::0                 110843577     72.79%     72.79% # Number of insts issued each cycle (Count)
system.cpu.numIssuedDist::1                   9828299      6.45%     79.24% # Number of insts issued each cycle (Count)
system.cpu.numIssuedDist::2                   7227381      4.75%     83.99% # Number of insts issued each cycle (Count)
system.cpu.numIssuedDist::3                   6581964      4.32%     88.31% # Number of insts issued each cycle (Count)
system.cpu.numIssuedDist::4                   5082141      3.34%     91.64% # Number of insts issued each cycle (Count)
system.cpu.numIssuedDist::5                   3043325      2.00%     93.64% # Number of insts issued each cycle (Count)
system.cpu.numIssuedDist::6                   3749427      2.46%     96.11% # Number of insts issued each cycle (Count)
system.cpu.numIssuedDist::7                   2306757      1.51%     97.62% # Number of insts issued each cycle (Count)
system.cpu.numIssuedDist::8                   3624623      2.38%    100.00% # Number of insts issued each cycle (Count)
system.cpu.numIssuedDist::overflows                 0      0.00%    100.00% # Number of insts issued each cycle (Count)
system.cpu.numIssuedDist::min_value                 0                       # Number of insts issued each cycle (Count)
system.cpu.numIssuedDist::max_value                 8                       # Number of insts issued each cycle (Count)
system.cpu.numIssuedDist::total             152287494                       # Number of insts issued each cycle (Count)
system.cpu.statFuBusy::No_OpClass                   0      0.00%      0.00% # attempts to use FU when none available (Count)
system.cpu.statFuBusy::IntAlu                   41709      4.98%      4.98% # attempts to use FU when none available (Count)
system.cpu.statFuBusy::IntMult                      0      0.00%      4.98% # attempts to use FU when none available (Count)
system.cpu.statFuBusy::IntDiv                    1192      0.14%      5.12% # attempts to use FU when none available (Count)
system.cpu.statFuBusy::FloatAdd                     0      0.00%      5.12% # attempts to use FU when none available (Count)
system.cpu.statFuBusy::FloatCmp                     0      0.00%      5.12% # attempts to use FU when none available (Count)
system.cpu.statFuBusy::FloatCvt                     0      0.00%      5.12% # attempts to use FU when none available (Count)
system.cpu.statFuBusy::FloatMult                    0      0.00%      5.12% # attempts to use FU when none available (Count)
system.cpu.statFuBusy::FloatMultAcc                 0      0.00%      5.12% # attempts to use FU when none available (Count)
system.cpu.statFuBusy::FloatDiv                     0      0.00%      5.12% # attempts to use FU when none available (Count)
system.cpu.statFuBusy::FloatMisc                    0      0.00%      5.12% # attempts to use FU when none available (Count)
system.cpu.statFuBusy::FloatSqrt                    0      0.00%      5.12% # attempts to use FU when none available (Count)
system.cpu.statFuBusy::SimdAdd                      0      0.00%      5.12% # attempts to use FU when none available (Count)
system.cpu.statFuBusy::SimdAddAcc                   0      0.00%      5.12% # attempts to use FU when none available (Count)
system.cpu.statFuBusy::SimdAlu                    252      0.03%      5.15% # attempts to use FU when none available (Count)
system.cpu.statFuBusy::SimdCmp                     17      0.00%      5.16% # attempts to use FU when none available (Count)
system.cpu.statFuBusy::SimdCvt                      0      0.00%      5.16% # attempts to use FU when none available (Count)
system.cpu.statFuBusy::SimdMisc                     0      0.00%      5.16% # attempts to use FU when none available (Count)
system.cpu.statFuBusy::SimdMult                  6994      0.84%      5.99% # attempts to use FU when none available (Count)
system.cpu.statFuBusy::SimdMultAcc                  0      0.00%      5.99% # attempts to use FU when none available (Count)
system.cpu.statFuBusy::SimdShift                    0      0.00%      5.99% # attempts to use FU when none available (Count)
system.cpu.statFuBusy::SimdShiftAcc                 0      0.00%      5.99% # attempts to use FU when none available (Count)
system.cpu.statFuBusy::SimdDiv                      0      0.00%      5.99% # attempts to use FU when none available (Count)
system.cpu.statFuBusy::SimdSqrt                     0      0.00%      5.99% # attempts to use FU when none available (Count)
system.cpu.statFuBusy::SimdFloatAdd                 0      0.00%      5.99% # attempts to use FU when none available (Count)
system.cpu.statFuBusy::SimdFloatAlu                 0      0.00%      5.99% # attempts to use FU when none available (Count)
system.cpu.statFuBusy::SimdFloatCmp                 0      0.00%      5.99% # attempts to use FU when none available (Count)
system.cpu.statFuBusy::SimdFloatCvt                 0      0.00%      5.99% # attempts to use FU when none available (Count)
system.cpu.statFuBusy::SimdFloatDiv                 0      0.00%      5.99% # attempts to use FU when none available (Count)
system.cpu.statFuBusy::SimdFloatMisc                0      0.00%      5.99% # attempts to use FU when none available (Count)
system.cpu.statFuBusy::SimdFloatMult                0      0.00%      5.99% # attempts to use FU when none available (Count)
system.cpu.statFuBusy::SimdFloatMultAcc             0      0.00%      5.99% # attempts to use FU when none available (Count)
system.cpu.statFuBusy::SimdFloatSqrt                0      0.00%      5.99% # attempts to use FU when none available (Count)
system.cpu.statFuBusy::SimdReduceAdd                0      0.00%      5.99% # attempts to use FU when none available (Count)
system.cpu.statFuBusy::SimdReduceAlu                0      0.00%      5.99% # attempts to use FU when none available (Count)
system.cpu.statFuBusy::SimdReduceCmp                0      0.00%      5.99% # attempts to use FU when none available (Count)
system.cpu.statFuBusy::SimdFloatReduceAdd            0      0.00%      5.99% # attempts to use FU when none available (Count)
system.cpu.statFuBusy::SimdFloatReduceCmp            0      0.00%      5.99% # attempts to use FU when none available (Count)
system.cpu.statFuBusy::SimdAes                      0      0.00%      5.99% # attempts to use FU when none available (Count)
system.cpu.statFuBusy::SimdAesMix                   0      0.00%      5.99% # attempts to use FU when none available (Count)
system.cpu.statFuBusy::SimdSha1Hash                 0      0.00%      5.99% # attempts to use FU when none available (Count)
system.cpu.statFuBusy::SimdSha1Hash2                0      0.00%      5.99% # attempts to use FU when none available (Count)
system.cpu.statFuBusy::SimdSha256Hash               0      0.00%      5.99% # attempts to use FU when none available (Count)
system.cpu.statFuBusy::SimdSha256Hash2              0      0.00%      5.99% # attempts to use FU when none available (Count)
system.cpu.statFuBusy::SimdShaSigma2                0      0.00%      5.99% # attempts to use FU when none available (Count)
system.cpu.statFuBusy::SimdShaSigma3                0      0.00%      5.99% # attempts to use FU when none available (Count)
system.cpu.statFuBusy::SimdPredAlu                  0      0.00%      5.99% # attempts to use FU when none available (Count)
system.cpu.statFuBusy::MemRead                 772168     92.22%     98.21% # attempts to use FU when none available (Count)
system.cpu.statFuBusy::MemWrite                 14960      1.79%    100.00% # attempts to use FU when none available (Count)
system.cpu.statFuBusy::FloatMemRead                 0      0.00%    100.00% # attempts to use FU when none available (Count)
system.cpu.statFuBusy::FloatMemWrite                0      0.00%    100.00% # attempts to use FU when none available (Count)
system.cpu.statFuBusy::IprAccess                    0      0.00%    100.00% # attempts to use FU when none available (Count)
system.cpu.statFuBusy::InstPrefetch                 0      0.00%    100.00% # attempts to use FU when none available (Count)
system.cpu.statIssuedInstType_0::No_OpClass     12241169      8.32%      8.32% # Number of instructions issued per FU type, per thread (Count)
system.cpu.statIssuedInstType_0::IntAlu      54207778     36.82%     45.14% # Number of instructions issued per FU type, per thread (Count)
system.cpu.statIssuedInstType_0::IntMult         7605      0.01%     45.14% # Number of instructions issued per FU type, per thread (Count)
system.cpu.statIssuedInstType_0::IntDiv          2696      0.00%     45.14% # Number of instructions issued per FU type, per thread (Count)
system.cpu.statIssuedInstType_0::FloatAdd            0      0.00%     45.14% # Number of instructions issued per FU type, per thread (Count)
system.cpu.statIssuedInstType_0::FloatCmp            0      0.00%     45.14% # Number of instructions issued per FU type, per thread (Count)
system.cpu.statIssuedInstType_0::FloatCvt            0      0.00%     45.14% # Number of instructions issued per FU type, per thread (Count)
system.cpu.statIssuedInstType_0::FloatMult            0      0.00%     45.14% # Number of instructions issued per FU type, per thread (Count)
system.cpu.statIssuedInstType_0::FloatMultAcc            0      0.00%     45.14% # Number of instructions issued per FU type, per thread (Count)
system.cpu.statIssuedInstType_0::FloatDiv            0      0.00%     45.14% # Number of instructions issued per FU type, per thread (Count)
system.cpu.statIssuedInstType_0::FloatMisc            2      0.00%     45.14% # Number of instructions issued per FU type, per thread (Count)
system.cpu.statIssuedInstType_0::FloatSqrt            0      0.00%     45.14% # Number of instructions issued per FU type, per thread (Count)
system.cpu.statIssuedInstType_0::SimdAdd      6285414      4.27%     49.41% # Number of instructions issued per FU type, per thread (Count)
system.cpu.statIssuedInstType_0::SimdAddAcc            0      0.00%     49.41% # Number of instructions issued per FU type, per thread (Count)
system.cpu.statIssuedInstType_0::SimdAlu         1812      0.00%     49.42% # Number of instructions issued per FU type, per thread (Count)
system.cpu.statIssuedInstType_0::SimdCmp          125      0.00%     49.42% # Number of instructions issued per FU type, per thread (Count)
system.cpu.statIssuedInstType_0::SimdCvt            0      0.00%     49.42% # Number of instructions issued per FU type, per thread (Count)
system.cpu.statIssuedInstType_0::SimdMisc      6285485      4.27%     53.68% # Number of instructions issued per FU type, per thread (Count)
system.cpu.statIssuedInstType_0::SimdMult      6456848      4.39%     58.07% # Number of instructions issued per FU type, per thread (Count)
system.cpu.statIssuedInstType_0::SimdMultAcc     19030064     12.93%     71.00% # Number of instructions issued per FU type, per thread (Count)
system.cpu.statIssuedInstType_0::SimdShift            0      0.00%     71.00% # Number of instructions issued per FU type, per thread (Count)
system.cpu.statIssuedInstType_0::SimdShiftAcc            0      0.00%     71.00% # Number of instructions issued per FU type, per thread (Count)
system.cpu.statIssuedInstType_0::SimdDiv            0      0.00%     71.00% # Number of instructions issued per FU type, per thread (Count)
system.cpu.statIssuedInstType_0::SimdSqrt            0      0.00%     71.00% # Number of instructions issued per FU type, per thread (Count)
system.cpu.statIssuedInstType_0::SimdFloatAdd            0      0.00%     71.00% # Number of instructions issued per FU type, per thread (Count)
system.cpu.statIssuedInstType_0::SimdFloatAlu            0      0.00%     71.00% # Number of instructions issued per FU type, per thread (Count)
system.cpu.statIssuedInstType_0::SimdFloatCmp            0      0.00%     71.00% # Number of instructions issued per FU type, per thread (Count)
system.cpu.statIssuedInstType_0::SimdFloatCvt            0      0.00%     71.00% # Number of instructions issued per FU type, per thread (Count)
system.cpu.statIssuedInstType_0::SimdFloatDiv            0      0.00%     71.00% # Number of instructions issued per FU type, per thread (Count)
system.cpu.statIssuedInstType_0::SimdFloatMisc            0      0.00%     71.00% # Number of instructions issued per FU type, per thread (Count)
system.cpu.statIssuedInstType_0::SimdFloatMult            0      0.00%     71.00% # Number of instructions issued per FU type, per thread (Count)
system.cpu.statIssuedInstType_0::SimdFloatMultAcc            0      0.00%     71.00% # Number of instructions issued per FU type, per thread (Count)
system.cpu.statIssuedInstType_0::SimdFloatSqrt            0      0.00%     71.00% # Number of instructions issued per FU type, per thread (Count)
system.cpu.statIssuedInstType_0::SimdReduceAdd            0      0.00%     71.00% # Number of instructions issued per FU type, per thread (Count)
system.cpu.statIssuedInstType_0::SimdReduceAlu            0      0.00%     71.00% # Number of instructions issued per FU type, per thread (Count)
system.cpu.statIssuedInstType_0::SimdReduceCmp            0      0.00%     71.00% # Number of instructions issued per FU type, per thread (Count)
system.cpu.statIssuedInstType_0::SimdFloatReduceAdd            0      0.00%     71.00% # Number of instructions issued per FU type, per thread (Count)
system.cpu.statIssuedInstType_0::SimdFloatReduceCmp            0      0.00%     71.00% # Number of instructions issued per FU type, per thread (Count)
system.cpu.statIssuedInstType_0::SimdAes            0      0.00%     71.00% # Number of instructions issued per FU type, per thread (Count)
system.cpu.statIssuedInstType_0::SimdAesMix            0      0.00%     71.00% # Number of instructions issued per FU type, per thread (Count)
system.cpu.statIssuedInstType_0::SimdSha1Hash            0      0.00%     71.00% # Number of instructions issued per FU type, per thread (Count)
system.cpu.statIssuedInstType_0::SimdSha1Hash2            0      0.00%     71.00% # Number of instructions issued per FU type, per thread (Count)
system.cpu.statIssuedInstType_0::SimdSha256Hash            0      0.00%     71.00% # Number of instructions issued per FU type, per thread (Count)
system.cpu.statIssuedInstType_0::SimdSha256Hash2            0      0.00%     71.00% # Number of instructions issued per FU type, per thread (Count)
system.cpu.statIssuedInstType_0::SimdShaSigma2            0      0.00%     71.00% # Number of instructions issued per FU type, per thread (Count)
system.cpu.statIssuedInstType_0::SimdShaSigma3            0      0.00%     71.00% # Number of instructions issued per FU type, per thread (Count)
system.cpu.statIssuedInstType_0::SimdPredAlu            0      0.00%     71.00% # Number of instructions issued per FU type, per thread (Count)
system.cpu.statIssuedInstType_0::MemRead     39279126     26.68%     97.68% # Number of instructions issued per FU type, per thread (Count)
system.cpu.statIssuedInstType_0::MemWrite      3416863      2.32%    100.00% # Number of instructions issued per FU type, per thread (Count)
system.cpu.statIssuedInstType_0::FloatMemRead            0      0.00%    100.00% # Number of instructions issued per FU type, per thread (Count)
system.cpu.statIssuedInstType_0::FloatMemWrite            0      0.00%    100.00% # Number of instructions issued per FU type, per thread (Count)
system.cpu.statIssuedInstType_0::IprAccess            0      0.00%    100.00% # Number of instructions issued per FU type, per thread (Count)
system.cpu.statIssuedInstType_0::InstPrefetch            0      0.00%    100.00% # Number of instructions issued per FU type, per thread (Count)
system.cpu.statIssuedInstType_0::total      147214987                       # Number of instructions issued per FU type, per thread (Count)
system.cpu.issueRate                         0.965919                       # Inst issue rate ((Count/Cycle))
system.cpu.fuBusy                              837292                       # FU busy when requested (Count)
system.cpu.fuBusyRate                        0.005688                       # FU busy rate (busy events/executed inst) ((Count/Count))
system.cpu.intInstQueueReads                295124936                       # Number of integer instruction queue reads (Count)
system.cpu.intInstQueueWrites                70824163                       # Number of integer instruction queue writes (Count)
system.cpu.intInstQueueWakeupAccesses        69594146                       # Number of integer instruction queue wakeup accesses (Count)
system.cpu.fpInstQueueReads                         0                       # Number of floating instruction queue reads (Count)
system.cpu.fpInstQueueWrites                        0                       # Number of floating instruction queue writes (Count)
system.cpu.fpInstQueueWakeupAccesses                0                       # Number of floating instruction queue wakeup accesses (Count)
system.cpu.vecInstQueueReads                152433273                       # Number of vector instruction queue reads (Count)
system.cpu.vecInstQueueWrites                75245277                       # Number of vector instruction queue writes (Count)
system.cpu.vecInstQueueWakeupAccesses        74791490                       # Number of vector instruction queue wakeup accesses (Count)
system.cpu.intAluAccesses                    71662879                       # Number of integer alu accesses (Count)
system.cpu.fpAluAccesses                            0                       # Number of floating point alu accesses (Count)
system.cpu.vecAluAccesses                    64148231                       # Number of vector alu accesses (Count)
system.cpu.numInsts                         147124907                       # Number of executed instructions (Count)
system.cpu.numLoadInsts                      39224615                       # Number of load instructions executed (Count)
system.cpu.numSquashedInsts                     90080                       # Number of squashed instructions skipped in execute (Count)
system.cpu.numSwp                                   0                       # Number of swp insts executed (Count)
system.cpu.numNop                                7627                       # Number of nop insts executed (Count)
system.cpu.numRefs                           42639622                       # Number of memory reference insts executed (Count)
system.cpu.numBranches                       16610673                       # Number of branches executed (Count)
system.cpu.numStoreInsts                      3415007                       # Number of stores executed (Count)
system.cpu.numRate                           0.965327                       # Inst execution rate ((Count/Cycle))
system.cpu.timesIdled                            1310                       # Number of times that the entire CPU went into an idle state and unscheduled itself (Count)
system.cpu.idleCycles                          121830                       # Total number of cycles that the CPU has spent unscheduled due to idling (Cycle)
system.cpu.committedInsts                   119119510                       # Number of Instructions Simulated (Count)
system.cpu.committedOps                     143858378                       # Number of Ops (including micro ops) Simulated (Count)
system.cpu.cpi                               1.279466                       # CPI: Cycles Per Instruction ((Cycle/Count))
system.cpu.totalCpi                          1.279466                       # CPI: Total CPI of All Threads ((Cycle/Count))
system.cpu.ipc                               0.781576                       # IPC: Instructions Per Cycle ((Count/Cycle))
system.cpu.totalIpc                          0.781576                       # IPC: Total IPC of All Threads ((Count/Cycle))
system.cpu.intRegfileReads                  116955564                       # Number of integer regfile reads (Count)
system.cpu.intRegfileWrites                  35559703                       # Number of integer regfile writes (Count)
system.cpu.vecRegfileReads                  200046048                       # number of vector regfile reads (Count)
system.cpu.ccRegfileReads                    61154250                       # number of cc regfile reads (Count)
system.cpu.ccRegfileWrites                   61171644                       # number of cc regfile writes (Count)
system.cpu.miscRegfileReads                 128257154                       # number of misc regfile reads (Count)
system.cpu.miscRegfileWrites                       61                       # number of misc regfile writes (Count)
system.cpu.MemDepUnit__0.insertedLoads       36617125                       # Number of loads inserted to the mem dependence unit. (Count)
system.cpu.MemDepUnit__0.insertedStores       3443490                       # Number of stores inserted to the mem dependence unit. (Count)
system.cpu.MemDepUnit__0.conflictingLoads        40062                       # Number of conflicting loads. (Count)
system.cpu.MemDepUnit__0.conflictingStores        13387                       # Number of conflicting stores. (Count)
system.cpu.MemDepUnit__1.insertedLoads              0                       # Number of loads inserted to the mem dependence unit. (Count)
system.cpu.MemDepUnit__1.insertedStores             0                       # Number of stores inserted to the mem dependence unit. (Count)
system.cpu.MemDepUnit__1.conflictingLoads            0                       # Number of conflicting loads. (Count)
system.cpu.MemDepUnit__1.conflictingStores            0                       # Number of conflicting stores. (Count)
system.cpu.MemDepUnit__2.insertedLoads              0                       # Number of loads inserted to the mem dependence unit. (Count)
system.cpu.MemDepUnit__2.insertedStores             0                       # Number of stores inserted to the mem dependence unit. (Count)
system.cpu.MemDepUnit__2.conflictingLoads            0                       # Number of conflicting loads. (Count)
system.cpu.MemDepUnit__2.conflictingStores            0                       # Number of conflicting stores. (Count)
system.cpu.MemDepUnit__3.insertedLoads              0                       # Number of loads inserted to the mem dependence unit. (Count)
system.cpu.MemDepUnit__3.insertedStores             0                       # Number of stores inserted to the mem dependence unit. (Count)
system.cpu.MemDepUnit__3.conflictingLoads            0                       # Number of conflicting loads. (Count)
system.cpu.MemDepUnit__3.conflictingStores            0                       # Number of conflicting stores. (Count)
system.cpu.branchPred.lookups                16806380                       # Number of BP lookups (Count)
system.cpu.branchPred.condPredicted          16733248                       # Number of conditional branches predicted (Count)
system.cpu.branchPred.condIncorrect             29981                       # Number of conditional branches incorrect (Count)
system.cpu.branchPred.BTBLookups               761689                       # Number of BTB lookups (Count)
system.cpu.branchPred.BTBUpdates                15275                       # Number of BTB updates (Count)
system.cpu.branchPred.BTBHits                  751629                       # Number of BTB hits (Count)
system.cpu.branchPred.BTBHitRatio            0.986793                       # BTB Hit Ratio (Ratio)
system.cpu.branchPred.RASUsed                   17192                       # Number of times the RAS was used to get a target. (Count)
system.cpu.branchPred.RASIncorrect                 31                       # Number of incorrect RAS predictions. (Count)
system.cpu.branchPred.indirectLookups            6188                       # Number of indirect predictor lookups. (Count)
system.cpu.branchPred.indirectHits               1322                       # Number of indirect target hits. (Count)
system.cpu.branchPred.indirectMisses             4866                       # Number of indirect misses. (Count)
system.cpu.branchPred.indirectMispredicted          582                       # Number of mispredicted indirect branches. (Count)
system.cpu.commit.commitSquashedInsts         1050987                       # The number of squashed insts skipped by commit (Count)
system.cpu.commit.commitNonSpecStalls             119                       # The number of times commit has been forced to stall to communicate backwards (Count)
system.cpu.commit.branchMispredicts             29612                       # The number of times a branch was mispredicted (Count)
system.cpu.commit.numCommittedDist::samples    152136340                       # Number of insts commited each cycle (Count)
system.cpu.commit.numCommittedDist::mean     0.945637                       # Number of insts commited each cycle (Count)
system.cpu.commit.numCommittedDist::stdev     2.487277                       # Number of insts commited each cycle (Count)
system.cpu.commit.numCommittedDist::underflows            0      0.00%      0.00% # Number of insts commited each cycle (Count)
system.cpu.commit.numCommittedDist::0       128917706     84.74%     84.74% # Number of insts commited each cycle (Count)
system.cpu.commit.numCommittedDist::1         3719774      2.45%     87.18% # Number of insts commited each cycle (Count)
system.cpu.commit.numCommittedDist::2         1101112      0.72%     87.91% # Number of insts commited each cycle (Count)
system.cpu.commit.numCommittedDist::3          917972      0.60%     88.51% # Number of insts commited each cycle (Count)
system.cpu.commit.numCommittedDist::4          667445      0.44%     88.95% # Number of insts commited each cycle (Count)
system.cpu.commit.numCommittedDist::5          637080      0.42%     89.37% # Number of insts commited each cycle (Count)
system.cpu.commit.numCommittedDist::6           23021      0.02%     89.38% # Number of insts commited each cycle (Count)
system.cpu.commit.numCommittedDist::7           21345      0.01%     89.40% # Number of insts commited each cycle (Count)
system.cpu.commit.numCommittedDist::8        16130885     10.60%    100.00% # Number of insts commited each cycle (Count)
system.cpu.commit.numCommittedDist::overflows            0      0.00%    100.00% # Number of insts commited each cycle (Count)
system.cpu.commit.numCommittedDist::min_value            0                       # Number of insts commited each cycle (Count)
system.cpu.commit.numCommittedDist::max_value            8                       # Number of insts commited each cycle (Count)
system.cpu.commit.numCommittedDist::total    152136340                       # Number of insts commited each cycle (Count)
system.cpu.commit.instsCommitted            119126847                       # Number of instructions committed (Count)
system.cpu.commit.opsCommitted              143865715                       # Number of ops (including micro ops) committed (Count)
system.cpu.commit.memRefs                    39780710                       # Number of memory references committed (Count)
system.cpu.commit.loads                      36395496                       # Number of loads committed (Count)
system.cpu.commit.amos                             30                       # Number of atomic instructions committed (Count)
system.cpu.commit.membars                          38                       # Number of memory barriers committed (Count)
system.cpu.commit.branches                   16522604                       # Number of branches committed (Count)
system.cpu.commit.vectorInstructions         74706653                       # Number of committed Vector instructions. (Count)
system.cpu.commit.floating                          0                       # Number of committed floating point instructions. (Count)
system.cpu.commit.integer                    86033036                       # Number of committed integer instructions. (Count)
system.cpu.commit.functionCalls                 10803                       # Number of function calls committed. (Count)
system.cpu.commit.committedInstType_0::No_OpClass     12227766      8.50%      8.50% # Class of committed instruction (Count)
system.cpu.commit.committedInstType_0::IntAlu     53826492     37.41%     45.91% # Class of committed instruction (Count)
system.cpu.commit.committedInstType_0::IntMult         7035      0.00%     45.92% # Class of committed instruction (Count)
system.cpu.commit.committedInstType_0::IntDiv         2554      0.00%     45.92% # Class of committed instruction (Count)
system.cpu.commit.committedInstType_0::FloatAdd            0      0.00%     45.92% # Class of committed instruction (Count)
system.cpu.commit.committedInstType_0::FloatCmp            0      0.00%     45.92% # Class of committed instruction (Count)
system.cpu.commit.committedInstType_0::FloatCvt            0      0.00%     45.92% # Class of committed instruction (Count)
system.cpu.commit.committedInstType_0::FloatMult            0      0.00%     45.92% # Class of committed instruction (Count)
system.cpu.commit.committedInstType_0::FloatMultAcc            0      0.00%     45.92% # Class of committed instruction (Count)
system.cpu.commit.committedInstType_0::FloatDiv            0      0.00%     45.92% # Class of committed instruction (Count)
system.cpu.commit.committedInstType_0::FloatMisc            2      0.00%     45.92% # Class of committed instruction (Count)
system.cpu.commit.committedInstType_0::FloatSqrt            0      0.00%     45.92% # Class of committed instruction (Count)
system.cpu.commit.committedInstType_0::SimdAdd      6280015      4.37%     50.29% # Class of committed instruction (Count)
system.cpu.commit.committedInstType_0::SimdAddAcc            0      0.00%     50.29% # Class of committed instruction (Count)
system.cpu.commit.committedInstType_0::SimdAlu         1753      0.00%     50.29% # Class of committed instruction (Count)
system.cpu.commit.committedInstType_0::SimdCmp           97      0.00%     50.29% # Class of committed instruction (Count)
system.cpu.commit.committedInstType_0::SimdCvt            0      0.00%     50.29% # Class of committed instruction (Count)
system.cpu.commit.committedInstType_0::SimdMisc      6280091      4.37%     54.65% # Class of committed instruction (Count)
system.cpu.commit.committedInstType_0::SimdMult      6449664      4.48%     59.14% # Class of committed instruction (Count)
system.cpu.commit.committedInstType_0::SimdMultAcc     19009536     13.21%     72.35% # Class of committed instruction (Count)
system.cpu.commit.committedInstType_0::SimdShift            0      0.00%     72.35% # Class of committed instruction (Count)
system.cpu.commit.committedInstType_0::SimdShiftAcc            0      0.00%     72.35% # Class of committed instruction (Count)
system.cpu.commit.committedInstType_0::SimdDiv            0      0.00%     72.35% # Class of committed instruction (Count)
system.cpu.commit.committedInstType_0::SimdSqrt            0      0.00%     72.35% # Class of committed instruction (Count)
system.cpu.commit.committedInstType_0::SimdFloatAdd            0      0.00%     72.35% # Class of committed instruction (Count)
system.cpu.commit.committedInstType_0::SimdFloatAlu            0      0.00%     72.35% # Class of committed instruction (Count)
system.cpu.commit.committedInstType_0::SimdFloatCmp            0      0.00%     72.35% # Class of committed instruction (Count)
system.cpu.commit.committedInstType_0::SimdFloatCvt            0      0.00%     72.35% # Class of committed instruction (Count)
system.cpu.commit.committedInstType_0::SimdFloatDiv            0      0.00%     72.35% # Class of committed instruction (Count)
system.cpu.commit.committedInstType_0::SimdFloatMisc            0      0.00%     72.35% # Class of committed instruction (Count)
system.cpu.commit.committedInstType_0::SimdFloatMult            0      0.00%     72.35% # Class of committed instruction (Count)
system.cpu.commit.committedInstType_0::SimdFloatMultAcc            0      0.00%     72.35% # Class of committed instruction (Count)
system.cpu.commit.committedInstType_0::SimdFloatSqrt            0      0.00%     72.35% # Class of committed instruction (Count)
system.cpu.commit.committedInstType_0::SimdReduceAdd            0      0.00%     72.35% # Class of committed instruction (Count)
system.cpu.commit.committedInstType_0::SimdReduceAlu            0      0.00%     72.35% # Class of committed instruction (Count)
system.cpu.commit.committedInstType_0::SimdReduceCmp            0      0.00%     72.35% # Class of committed instruction (Count)
system.cpu.commit.committedInstType_0::SimdFloatReduceAdd            0      0.00%     72.35% # Class of committed instruction (Count)
system.cpu.commit.committedInstType_0::SimdFloatReduceCmp            0      0.00%     72.35% # Class of committed instruction (Count)
system.cpu.commit.committedInstType_0::SimdAes            0      0.00%     72.35% # Class of committed instruction (Count)
system.cpu.commit.committedInstType_0::SimdAesMix            0      0.00%     72.35% # Class of committed instruction (Count)
system.cpu.commit.committedInstType_0::SimdSha1Hash            0      0.00%     72.35% # Class of committed instruction (Count)
system.cpu.commit.committedInstType_0::SimdSha1Hash2            0      0.00%     72.35% # Class of committed instruction (Count)
system.cpu.commit.committedInstType_0::SimdSha256Hash            0      0.00%     72.35% # Class of committed instruction (Count)
system.cpu.commit.committedInstType_0::SimdSha256Hash2            0      0.00%     72.35% # Class of committed instruction (Count)
system.cpu.commit.committedInstType_0::SimdShaSigma2            0      0.00%     72.35% # Class of committed instruction (Count)
system.cpu.commit.committedInstType_0::SimdShaSigma3            0      0.00%     72.35% # Class of committed instruction (Count)
system.cpu.commit.committedInstType_0::SimdPredAlu            0      0.00%     72.35% # Class of committed instruction (Count)
system.cpu.commit.committedInstType_0::MemRead     36395496     25.30%     97.65% # Class of committed instruction (Count)
system.cpu.commit.committedInstType_0::MemWrite      3385214      2.35%    100.00% # Class of committed instruction (Count)
system.cpu.commit.committedInstType_0::FloatMemRead            0      0.00%    100.00% # Class of committed instruction (Count)
system.cpu.commit.committedInstType_0::FloatMemWrite            0      0.00%    100.00% # Class of committed instruction (Count)
system.cpu.commit.committedInstType_0::IprAccess            0      0.00%    100.00% # Class of committed instruction (Count)
system.cpu.commit.committedInstType_0::InstPrefetch            0      0.00%    100.00% # Class of committed instruction (Count)
system.cpu.commit.committedInstType_0::total    143865715                       # Class of committed instruction (Count)
system.cpu.commit.commitEligibleSamples      16130885                       # number cycles where commit BW limit reached (Cycle)
system.cpu.dcache.demandHits::cpu.data       36128361                       # number of demand (read+write) hits (Count)
system.cpu.dcache.demandHits::total          36128361                       # number of demand (read+write) hits (Count)
system.cpu.dcache.overallHits::cpu.data      36128361                       # number of overall hits (Count)
system.cpu.dcache.overallHits::total         36128361                       # number of overall hits (Count)
system.cpu.dcache.demandMisses::cpu.data      3737333                       # number of demand (read+write) misses (Count)
system.cpu.dcache.demandMisses::total         3737333                       # number of demand (read+write) misses (Count)
system.cpu.dcache.overallMisses::cpu.data      3737333                       # number of overall misses (Count)
system.cpu.dcache.overallMisses::total        3737333                       # number of overall misses (Count)
system.cpu.dcache.demandMissLatency::cpu.data 145361653501                       # number of demand (read+write) miss ticks (Tick)
system.cpu.dcache.demandMissLatency::total 145361653501                       # number of demand (read+write) miss ticks (Tick)
system.cpu.dcache.overallMissLatency::cpu.data 145361653501                       # number of overall miss ticks (Tick)
system.cpu.dcache.overallMissLatency::total 145361653501                       # number of overall miss ticks (Tick)
system.cpu.dcache.demandAccesses::cpu.data     39865694                       # number of demand (read+write) accesses (Count)
system.cpu.dcache.demandAccesses::total      39865694                       # number of demand (read+write) accesses (Count)
system.cpu.dcache.overallAccesses::cpu.data     39865694                       # number of overall (read+write) accesses (Count)
system.cpu.dcache.overallAccesses::total     39865694                       # number of overall (read+write) accesses (Count)
system.cpu.dcache.demandMissRate::cpu.data     0.093748                       # miss rate for demand accesses (Ratio)
system.cpu.dcache.demandMissRate::total      0.093748                       # miss rate for demand accesses (Ratio)
system.cpu.dcache.overallMissRate::cpu.data     0.093748                       # miss rate for overall accesses (Ratio)
system.cpu.dcache.overallMissRate::total     0.093748                       # miss rate for overall accesses (Ratio)
system.cpu.dcache.demandAvgMissLatency::cpu.data 38894.487995                       # average overall miss latency in ticks ((Tick/Count))
system.cpu.dcache.demandAvgMissLatency::total 38894.487995                       # average overall miss latency in ticks ((Tick/Count))
system.cpu.dcache.overallAvgMissLatency::cpu.data 38894.487995                       # average overall miss latency ((Tick/Count))
system.cpu.dcache.overallAvgMissLatency::total 38894.487995                       # average overall miss latency ((Tick/Count))
system.cpu.dcache.blockedCycles::no_mshrs      8744755                       # number of cycles access was blocked (Cycle)
system.cpu.dcache.blockedCycles::no_targets          432                       # number of cycles access was blocked (Cycle)
system.cpu.dcache.blockedCauses::no_mshrs       404851                       # number of times access was blocked (Count)
system.cpu.dcache.blockedCauses::no_targets           11                       # number of times access was blocked (Count)
system.cpu.dcache.avgBlocked::no_mshrs      21.599934                       # average number of cycles each access was blocked ((Cycle/Count))
system.cpu.dcache.avgBlocked::no_targets    39.272727                       # average number of cycles each access was blocked ((Cycle/Count))
system.cpu.dcache.writebacks::writebacks      3140621                       # number of writebacks (Count)
system.cpu.dcache.writebacks::total           3140621                       # number of writebacks (Count)
system.cpu.dcache.demandMshrHits::cpu.data       181778                       # number of demand (read+write) MSHR hits (Count)
system.cpu.dcache.demandMshrHits::total        181778                       # number of demand (read+write) MSHR hits (Count)
system.cpu.dcache.overallMshrHits::cpu.data       181778                       # number of overall MSHR hits (Count)
system.cpu.dcache.overallMshrHits::total       181778                       # number of overall MSHR hits (Count)
system.cpu.dcache.demandMshrMisses::cpu.data      3555555                       # number of demand (read+write) MSHR misses (Count)
system.cpu.dcache.demandMshrMisses::total      3555555                       # number of demand (read+write) MSHR misses (Count)
system.cpu.dcache.overallMshrMisses::cpu.data      3555555                       # number of overall MSHR misses (Count)
system.cpu.dcache.overallMshrMisses::total      3555555                       # number of overall MSHR misses (Count)
system.cpu.dcache.demandMshrMissLatency::cpu.data 127203406705                       # number of demand (read+write) MSHR miss ticks (Tick)
system.cpu.dcache.demandMshrMissLatency::total 127203406705                       # number of demand (read+write) MSHR miss ticks (Tick)
system.cpu.dcache.overallMshrMissLatency::cpu.data 127203406705                       # number of overall MSHR miss ticks (Tick)
system.cpu.dcache.overallMshrMissLatency::total 127203406705                       # number of overall MSHR miss ticks (Tick)
system.cpu.dcache.demandMshrMissRate::cpu.data     0.089188                       # mshr miss ratio for demand accesses (Ratio)
system.cpu.dcache.demandMshrMissRate::total     0.089188                       # mshr miss ratio for demand accesses (Ratio)
system.cpu.dcache.overallMshrMissRate::cpu.data     0.089188                       # mshr miss ratio for overall accesses (Ratio)
system.cpu.dcache.overallMshrMissRate::total     0.089188                       # mshr miss ratio for overall accesses (Ratio)
system.cpu.dcache.demandAvgMshrMissLatency::cpu.data 35775.963726                       # average overall mshr miss latency ((Tick/Count))
system.cpu.dcache.demandAvgMshrMissLatency::total 35775.963726                       # average overall mshr miss latency ((Tick/Count))
system.cpu.dcache.overallAvgMshrMissLatency::cpu.data 35775.963726                       # average overall mshr miss latency ((Tick/Count))
system.cpu.dcache.overallAvgMshrMissLatency::total 35775.963726                       # average overall mshr miss latency ((Tick/Count))
system.cpu.dcache.replacements                3554531                       # number of replacements (Count)
system.cpu.dcache.ReadReq.hits::cpu.data     32748762                       # number of ReadReq hits (Count)
system.cpu.dcache.ReadReq.hits::total        32748762                       # number of ReadReq hits (Count)
system.cpu.dcache.ReadReq.misses::cpu.data      3731734                       # number of ReadReq misses (Count)
system.cpu.dcache.ReadReq.misses::total       3731734                       # number of ReadReq misses (Count)
system.cpu.dcache.ReadReq.missLatency::cpu.data 145026922000                       # number of ReadReq miss ticks (Tick)
system.cpu.dcache.ReadReq.missLatency::total 145026922000                       # number of ReadReq miss ticks (Tick)
system.cpu.dcache.ReadReq.accesses::cpu.data     36480496                       # number of ReadReq accesses(hits+misses) (Count)
system.cpu.dcache.ReadReq.accesses::total     36480496                       # number of ReadReq accesses(hits+misses) (Count)
system.cpu.dcache.ReadReq.missRate::cpu.data     0.102294                       # miss rate for ReadReq accesses (Ratio)
system.cpu.dcache.ReadReq.missRate::total     0.102294                       # miss rate for ReadReq accesses (Ratio)
system.cpu.dcache.ReadReq.avgMissLatency::cpu.data 38863.145658                       # average ReadReq miss latency ((Tick/Count))
system.cpu.dcache.ReadReq.avgMissLatency::total 38863.145658                       # average ReadReq miss latency ((Tick/Count))
system.cpu.dcache.ReadReq.mshrHits::cpu.data       178410                       # number of ReadReq MSHR hits (Count)
system.cpu.dcache.ReadReq.mshrHits::total       178410                       # number of ReadReq MSHR hits (Count)
system.cpu.dcache.ReadReq.mshrMisses::cpu.data      3553324                       # number of ReadReq MSHR misses (Count)
system.cpu.dcache.ReadReq.mshrMisses::total      3553324                       # number of ReadReq MSHR misses (Count)
system.cpu.dcache.ReadReq.mshrMissLatency::cpu.data 127071008000                       # number of ReadReq MSHR miss ticks (Tick)
system.cpu.dcache.ReadReq.mshrMissLatency::total 127071008000                       # number of ReadReq MSHR miss ticks (Tick)
system.cpu.dcache.ReadReq.mshrMissRate::cpu.data     0.097403                       # mshr miss rate for ReadReq accesses (Ratio)
system.cpu.dcache.ReadReq.mshrMissRate::total     0.097403                       # mshr miss rate for ReadReq accesses (Ratio)
system.cpu.dcache.ReadReq.avgMshrMissLatency::cpu.data 35761.165602                       # average ReadReq mshr miss latency ((Tick/Count))
system.cpu.dcache.ReadReq.avgMshrMissLatency::total 35761.165602                       # average ReadReq mshr miss latency ((Tick/Count))
system.cpu.dcache.SwapReq.hits::cpu.data           27                       # number of SwapReq hits (Count)
system.cpu.dcache.SwapReq.hits::total              27                       # number of SwapReq hits (Count)
system.cpu.dcache.SwapReq.misses::cpu.data            3                       # number of SwapReq misses (Count)
system.cpu.dcache.SwapReq.misses::total             3                       # number of SwapReq misses (Count)
system.cpu.dcache.SwapReq.missLatency::cpu.data       126000                       # number of SwapReq miss ticks (Tick)
system.cpu.dcache.SwapReq.missLatency::total       126000                       # number of SwapReq miss ticks (Tick)
system.cpu.dcache.SwapReq.accesses::cpu.data           30                       # number of SwapReq accesses(hits+misses) (Count)
system.cpu.dcache.SwapReq.accesses::total           30                       # number of SwapReq accesses(hits+misses) (Count)
system.cpu.dcache.SwapReq.missRate::cpu.data     0.100000                       # miss rate for SwapReq accesses (Ratio)
system.cpu.dcache.SwapReq.missRate::total     0.100000                       # miss rate for SwapReq accesses (Ratio)
system.cpu.dcache.SwapReq.avgMissLatency::cpu.data        42000                       # average SwapReq miss latency ((Tick/Count))
system.cpu.dcache.SwapReq.avgMissLatency::total        42000                       # average SwapReq miss latency ((Tick/Count))
system.cpu.dcache.SwapReq.mshrMisses::cpu.data            3                       # number of SwapReq MSHR misses (Count)
system.cpu.dcache.SwapReq.mshrMisses::total            3                       # number of SwapReq MSHR misses (Count)
system.cpu.dcache.SwapReq.mshrMissLatency::cpu.data       123000                       # number of SwapReq MSHR miss ticks (Tick)
system.cpu.dcache.SwapReq.mshrMissLatency::total       123000                       # number of SwapReq MSHR miss ticks (Tick)
system.cpu.dcache.SwapReq.mshrMissRate::cpu.data     0.100000                       # mshr miss rate for SwapReq accesses (Ratio)
system.cpu.dcache.SwapReq.mshrMissRate::total     0.100000                       # mshr miss rate for SwapReq accesses (Ratio)
system.cpu.dcache.SwapReq.avgMshrMissLatency::cpu.data        41000                       # average SwapReq mshr miss latency ((Tick/Count))
system.cpu.dcache.SwapReq.avgMshrMissLatency::total        41000                       # average SwapReq mshr miss latency ((Tick/Count))
system.cpu.dcache.WriteLineReq.misses::cpu.data          131                       # number of WriteLineReq misses (Count)
system.cpu.dcache.WriteLineReq.misses::total          131                       # number of WriteLineReq misses (Count)
system.cpu.dcache.WriteLineReq.missLatency::cpu.data      4174908                       # number of WriteLineReq miss ticks (Tick)
system.cpu.dcache.WriteLineReq.missLatency::total      4174908                       # number of WriteLineReq miss ticks (Tick)
system.cpu.dcache.WriteLineReq.accesses::cpu.data          131                       # number of WriteLineReq accesses(hits+misses) (Count)
system.cpu.dcache.WriteLineReq.accesses::total          131                       # number of WriteLineReq accesses(hits+misses) (Count)
system.cpu.dcache.WriteLineReq.missRate::cpu.data            1                       # miss rate for WriteLineReq accesses (Ratio)
system.cpu.dcache.WriteLineReq.missRate::total            1                       # miss rate for WriteLineReq accesses (Ratio)
system.cpu.dcache.WriteLineReq.avgMissLatency::cpu.data 31869.526718                       # average WriteLineReq miss latency ((Tick/Count))
system.cpu.dcache.WriteLineReq.avgMissLatency::total 31869.526718                       # average WriteLineReq miss latency ((Tick/Count))
system.cpu.dcache.WriteLineReq.mshrMisses::cpu.data          131                       # number of WriteLineReq MSHR misses (Count)
system.cpu.dcache.WriteLineReq.mshrMisses::total          131                       # number of WriteLineReq MSHR misses (Count)
system.cpu.dcache.WriteLineReq.mshrMissLatency::cpu.data      4043908                       # number of WriteLineReq MSHR miss ticks (Tick)
system.cpu.dcache.WriteLineReq.mshrMissLatency::total      4043908                       # number of WriteLineReq MSHR miss ticks (Tick)
system.cpu.dcache.WriteLineReq.mshrMissRate::cpu.data            1                       # mshr miss rate for WriteLineReq accesses (Ratio)
system.cpu.dcache.WriteLineReq.mshrMissRate::total            1                       # mshr miss rate for WriteLineReq accesses (Ratio)
system.cpu.dcache.WriteLineReq.avgMshrMissLatency::cpu.data 30869.526718                       # average WriteLineReq mshr miss latency ((Tick/Count))
system.cpu.dcache.WriteLineReq.avgMshrMissLatency::total 30869.526718                       # average WriteLineReq mshr miss latency ((Tick/Count))
system.cpu.dcache.WriteReq.hits::cpu.data      3379599                       # number of WriteReq hits (Count)
system.cpu.dcache.WriteReq.hits::total        3379599                       # number of WriteReq hits (Count)
system.cpu.dcache.WriteReq.misses::cpu.data         5468                       # number of WriteReq misses (Count)
system.cpu.dcache.WriteReq.misses::total         5468                       # number of WriteReq misses (Count)
system.cpu.dcache.WriteReq.missLatency::cpu.data    330556593                       # number of WriteReq miss ticks (Tick)
system.cpu.dcache.WriteReq.missLatency::total    330556593                       # number of WriteReq miss ticks (Tick)
system.cpu.dcache.WriteReq.accesses::cpu.data      3385067                       # number of WriteReq accesses(hits+misses) (Count)
system.cpu.dcache.WriteReq.accesses::total      3385067                       # number of WriteReq accesses(hits+misses) (Count)
system.cpu.dcache.WriteReq.missRate::cpu.data     0.001615                       # miss rate for WriteReq accesses (Ratio)
system.cpu.dcache.WriteReq.missRate::total     0.001615                       # miss rate for WriteReq accesses (Ratio)
system.cpu.dcache.WriteReq.avgMissLatency::cpu.data 60452.924835                       # average WriteReq miss latency ((Tick/Count))
system.cpu.dcache.WriteReq.avgMissLatency::total 60452.924835                       # average WriteReq miss latency ((Tick/Count))
system.cpu.dcache.WriteReq.mshrHits::cpu.data         3368                       # number of WriteReq MSHR hits (Count)
system.cpu.dcache.WriteReq.mshrHits::total         3368                       # number of WriteReq MSHR hits (Count)
system.cpu.dcache.WriteReq.mshrMisses::cpu.data         2100                       # number of WriteReq MSHR misses (Count)
system.cpu.dcache.WriteReq.mshrMisses::total         2100                       # number of WriteReq MSHR misses (Count)
system.cpu.dcache.WriteReq.mshrMissLatency::cpu.data    128354797                       # number of WriteReq MSHR miss ticks (Tick)
system.cpu.dcache.WriteReq.mshrMissLatency::total    128354797                       # number of WriteReq MSHR miss ticks (Tick)
system.cpu.dcache.WriteReq.mshrMissRate::cpu.data     0.000620                       # mshr miss rate for WriteReq accesses (Ratio)
system.cpu.dcache.WriteReq.mshrMissRate::total     0.000620                       # mshr miss rate for WriteReq accesses (Ratio)
system.cpu.dcache.WriteReq.avgMshrMissLatency::cpu.data 61121.331905                       # average WriteReq mshr miss latency ((Tick/Count))
system.cpu.dcache.WriteReq.avgMshrMissLatency::total 61121.331905                       # average WriteReq mshr miss latency ((Tick/Count))
system.cpu.dcache.power_state.pwrStateResidencyTicks::UNDEFINED  76204661500                       # Cumulative time (in ticks) in various power states (Tick)
system.cpu.dcache.tags.tagsInUse          1023.508163                       # Average ticks per tags in use ((Tick/Count))
system.cpu.dcache.tags.totalRefs             33878867                       # Total number of references to valid blocks. (Count)
system.cpu.dcache.tags.sampledRefs            3554531                       # Sample count of references to valid blocks. (Count)
system.cpu.dcache.tags.avgRefs               9.531178                       # Average number of references to valid blocks. ((Count/Count))
system.cpu.dcache.tags.warmupTick              253500                       # The tick when the warmup percentage was hit. (Tick)
system.cpu.dcache.tags.occupancies::cpu.data  1023.508163                       # Average occupied blocks per tick, per requestor ((Count/Tick))
system.cpu.dcache.tags.avgOccs::cpu.data     0.999520                       # Average percentage of cache occupancy ((Ratio/Tick))
system.cpu.dcache.tags.avgOccs::total        0.999520                       # Average percentage of cache occupancy ((Ratio/Tick))
system.cpu.dcache.tags.occupanciesTaskId::1024         1024                       # Occupied blocks per task id (Count)
system.cpu.dcache.tags.ageTaskId_1024::0          172                       # Occupied blocks per task id, per block age (Count)
system.cpu.dcache.tags.ageTaskId_1024::1          417                       # Occupied blocks per task id, per block age (Count)
system.cpu.dcache.tags.ageTaskId_1024::2          423                       # Occupied blocks per task id, per block age (Count)
system.cpu.dcache.tags.ageTaskId_1024::3           10                       # Occupied blocks per task id, per block age (Count)
system.cpu.dcache.tags.ageTaskId_1024::4            2                       # Occupied blocks per task id, per block age (Count)
system.cpu.dcache.tags.ratioOccsTaskId::1024            1                       # Ratio of occupied blocks and all blocks, per task id (Ratio)
system.cpu.dcache.tags.tagAccesses          163018451                       # Number of tag accesses (Count)
system.cpu.dcache.tags.dataAccesses         163018451                       # Number of data accesses (Count)
system.cpu.dcache.tags.power_state.pwrStateResidencyTicks::UNDEFINED  76204661500                       # Cumulative time (in ticks) in various power states (Tick)
system.cpu.decode.idleCycles                  4322378                       # Number of cycles decode is idle (Cycle)
system.cpu.decode.blockedCycles             128482732                       # Number of cycles decode is blocked (Cycle)
system.cpu.decode.runCycles                  15670275                       # Number of cycles decode is running (Cycle)
system.cpu.decode.unblockCycles               3780252                       # Number of cycles decode is unblocking (Cycle)
system.cpu.decode.squashCycles                  31857                       # Number of cycles decode is squashing (Cycle)
system.cpu.decode.branchResolved               728222                       # Number of times decode resolved a branch (Count)
system.cpu.decode.branchMispred                   744                       # Number of times decode detected a branch misprediction (Count)
system.cpu.decode.decodedInsts              145329800                       # Number of instructions handled by decode (Count)
system.cpu.decode.squashedInsts                  2500                       # Number of squashed instructions handled by decode (Count)
system.cpu.fetch.icacheStallCycles            7990680                       # Number of cycles fetch is stalled on an Icache miss (Cycle)
system.cpu.fetch.insts                      120713681                       # Number of instructions fetch has processed (Count)
system.cpu.fetch.branches                    16806380                       # Number of branches that fetch encountered (Count)
system.cpu.fetch.predictedBranches             770143                       # Number of branches that fetch has predicted taken (Count)
system.cpu.fetch.cycles                     144261302                       # Number of cycles fetch has run and was not squashing or blocked (Cycle)
system.cpu.fetch.squashCycles                   65164                       # Number of cycles fetch has spent squashing (Cycle)
system.cpu.fetch.miscStallCycles                  384                       # Number of cycles fetch has spent waiting on interrupts, or bad addresses, or out of MSHRs (Cycle)
system.cpu.fetch.pendingTrapStallCycles          2504                       # Number of stall cycles due to pending traps (Cycle)
system.cpu.fetch.icacheWaitRetryStallCycles           42                       # Number of stall cycles due to full MSHR (Cycle)
system.cpu.fetch.cacheLines                   7932666                       # Number of cache lines fetched (Count)
system.cpu.fetch.icacheSquashes                  5231                       # Number of outstanding Icache misses that were squashed (Count)
system.cpu.fetch.nisnDist::samples          152287494                       # Number of instructions fetched each cycle (Total) (Count)
system.cpu.fetch.nisnDist::mean              0.956944                       # Number of instructions fetched each cycle (Total) (Count)
system.cpu.fetch.nisnDist::stdev             2.439729                       # Number of instructions fetched each cycle (Total) (Count)
system.cpu.fetch.nisnDist::underflows               0      0.00%      0.00% # Number of instructions fetched each cycle (Total) (Count)
system.cpu.fetch.nisnDist::0                129260461     84.88%     84.88% # Number of instructions fetched each cycle (Total) (Count)
system.cpu.fetch.nisnDist::1                   127075      0.08%     84.96% # Number of instructions fetched each cycle (Total) (Count)
system.cpu.fetch.nisnDist::2                  3056929      2.01%     86.97% # Number of instructions fetched each cycle (Total) (Count)
system.cpu.fetch.nisnDist::3                   190035      0.12%     87.09% # Number of instructions fetched each cycle (Total) (Count)
system.cpu.fetch.nisnDist::4                  3739102      2.46%     89.55% # Number of instructions fetched each cycle (Total) (Count)
system.cpu.fetch.nisnDist::5                   154176      0.10%     89.65% # Number of instructions fetched each cycle (Total) (Count)
system.cpu.fetch.nisnDist::6                  1413765      0.93%     90.58% # Number of instructions fetched each cycle (Total) (Count)
system.cpu.fetch.nisnDist::7                    57865      0.04%     90.62% # Number of instructions fetched each cycle (Total) (Count)
system.cpu.fetch.nisnDist::8                 14288086      9.38%    100.00% # Number of instructions fetched each cycle (Total) (Count)
system.cpu.fetch.nisnDist::overflows                0      0.00%    100.00% # Number of instructions fetched each cycle (Total) (Count)
system.cpu.fetch.nisnDist::min_value                0                       # Number of instructions fetched each cycle (Total) (Count)
system.cpu.fetch.nisnDist::max_value                8                       # Number of instructions fetched each cycle (Total) (Count)
system.cpu.fetch.nisnDist::total            152287494                       # Number of instructions fetched each cycle (Total) (Count)
system.cpu.fetch.branchRate                  0.110271                       # Number of branch fetches per cycle (Ratio)
system.cpu.fetch.rate                        0.792036                       # Number of inst fetches per cycle ((Count/Cycle))
system.cpu.icache.demandHits::cpu.inst        7930304                       # number of demand (read+write) hits (Count)
system.cpu.icache.demandHits::total           7930304                       # number of demand (read+write) hits (Count)
system.cpu.icache.overallHits::cpu.inst       7930304                       # number of overall hits (Count)
system.cpu.icache.overallHits::total          7930304                       # number of overall hits (Count)
system.cpu.icache.demandMisses::cpu.inst         2362                       # number of demand (read+write) misses (Count)
system.cpu.icache.demandMisses::total            2362                       # number of demand (read+write) misses (Count)
system.cpu.icache.overallMisses::cpu.inst         2362                       # number of overall misses (Count)
system.cpu.icache.overallMisses::total           2362                       # number of overall misses (Count)
system.cpu.icache.demandMissLatency::cpu.inst    155029499                       # number of demand (read+write) miss ticks (Tick)
system.cpu.icache.demandMissLatency::total    155029499                       # number of demand (read+write) miss ticks (Tick)
system.cpu.icache.overallMissLatency::cpu.inst    155029499                       # number of overall miss ticks (Tick)
system.cpu.icache.overallMissLatency::total    155029499                       # number of overall miss ticks (Tick)
system.cpu.icache.demandAccesses::cpu.inst      7932666                       # number of demand (read+write) accesses (Count)
system.cpu.icache.demandAccesses::total       7932666                       # number of demand (read+write) accesses (Count)
system.cpu.icache.overallAccesses::cpu.inst      7932666                       # number of overall (read+write) accesses (Count)
system.cpu.icache.overallAccesses::total      7932666                       # number of overall (read+write) accesses (Count)
system.cpu.icache.demandMissRate::cpu.inst     0.000298                       # miss rate for demand accesses (Ratio)
system.cpu.icache.demandMissRate::total      0.000298                       # miss rate for demand accesses (Ratio)
system.cpu.icache.overallMissRate::cpu.inst     0.000298                       # miss rate for overall accesses (Ratio)
system.cpu.icache.overallMissRate::total     0.000298                       # miss rate for overall accesses (Ratio)
system.cpu.icache.demandAvgMissLatency::cpu.inst 65634.842930                       # average overall miss latency in ticks ((Tick/Count))
system.cpu.icache.demandAvgMissLatency::total 65634.842930                       # average overall miss latency in ticks ((Tick/Count))
system.cpu.icache.overallAvgMissLatency::cpu.inst 65634.842930                       # average overall miss latency ((Tick/Count))
system.cpu.icache.overallAvgMissLatency::total 65634.842930                       # average overall miss latency ((Tick/Count))
system.cpu.icache.blockedCycles::no_mshrs          459                       # number of cycles access was blocked (Cycle)
system.cpu.icache.blockedCycles::no_targets            0                       # number of cycles access was blocked (Cycle)
system.cpu.icache.blockedCauses::no_mshrs           11                       # number of times access was blocked (Count)
system.cpu.icache.blockedCauses::no_targets            0                       # number of times access was blocked (Count)
system.cpu.icache.avgBlocked::no_mshrs      41.727273                       # average number of cycles each access was blocked ((Cycle/Count))
system.cpu.icache.avgBlocked::no_targets          nan                       # average number of cycles each access was blocked ((Cycle/Count))
system.cpu.icache.writebacks::writebacks         1592                       # number of writebacks (Count)
system.cpu.icache.writebacks::total              1592                       # number of writebacks (Count)
system.cpu.icache.demandMshrHits::cpu.inst          514                       # number of demand (read+write) MSHR hits (Count)
system.cpu.icache.demandMshrHits::total           514                       # number of demand (read+write) MSHR hits (Count)
system.cpu.icache.overallMshrHits::cpu.inst          514                       # number of overall MSHR hits (Count)
system.cpu.icache.overallMshrHits::total          514                       # number of overall MSHR hits (Count)
system.cpu.icache.demandMshrMisses::cpu.inst         1848                       # number of demand (read+write) MSHR misses (Count)
system.cpu.icache.demandMshrMisses::total         1848                       # number of demand (read+write) MSHR misses (Count)
system.cpu.icache.overallMshrMisses::cpu.inst         1848                       # number of overall MSHR misses (Count)
system.cpu.icache.overallMshrMisses::total         1848                       # number of overall MSHR misses (Count)
system.cpu.icache.demandMshrMissLatency::cpu.inst    121866500                       # number of demand (read+write) MSHR miss ticks (Tick)
system.cpu.icache.demandMshrMissLatency::total    121866500                       # number of demand (read+write) MSHR miss ticks (Tick)
system.cpu.icache.overallMshrMissLatency::cpu.inst    121866500                       # number of overall MSHR miss ticks (Tick)
system.cpu.icache.overallMshrMissLatency::total    121866500                       # number of overall MSHR miss ticks (Tick)
system.cpu.icache.demandMshrMissRate::cpu.inst     0.000233                       # mshr miss ratio for demand accesses (Ratio)
system.cpu.icache.demandMshrMissRate::total     0.000233                       # mshr miss ratio for demand accesses (Ratio)
system.cpu.icache.overallMshrMissRate::cpu.inst     0.000233                       # mshr miss ratio for overall accesses (Ratio)
system.cpu.icache.overallMshrMissRate::total     0.000233                       # mshr miss ratio for overall accesses (Ratio)
system.cpu.icache.demandAvgMshrMissLatency::cpu.inst 65945.075758                       # average overall mshr miss latency ((Tick/Count))
system.cpu.icache.demandAvgMshrMissLatency::total 65945.075758                       # average overall mshr miss latency ((Tick/Count))
system.cpu.icache.overallAvgMshrMissLatency::cpu.inst 65945.075758                       # average overall mshr miss latency ((Tick/Count))
system.cpu.icache.overallAvgMshrMissLatency::total 65945.075758                       # average overall mshr miss latency ((Tick/Count))
system.cpu.icache.replacements                   1592                       # number of replacements (Count)
system.cpu.icache.ReadReq.hits::cpu.inst      7930304                       # number of ReadReq hits (Count)
system.cpu.icache.ReadReq.hits::total         7930304                       # number of ReadReq hits (Count)
system.cpu.icache.ReadReq.misses::cpu.inst         2362                       # number of ReadReq misses (Count)
system.cpu.icache.ReadReq.misses::total          2362                       # number of ReadReq misses (Count)
system.cpu.icache.ReadReq.missLatency::cpu.inst    155029499                       # number of ReadReq miss ticks (Tick)
system.cpu.icache.ReadReq.missLatency::total    155029499                       # number of ReadReq miss ticks (Tick)
system.cpu.icache.ReadReq.accesses::cpu.inst      7932666                       # number of ReadReq accesses(hits+misses) (Count)
system.cpu.icache.ReadReq.accesses::total      7932666                       # number of ReadReq accesses(hits+misses) (Count)
system.cpu.icache.ReadReq.missRate::cpu.inst     0.000298                       # miss rate for ReadReq accesses (Ratio)
system.cpu.icache.ReadReq.missRate::total     0.000298                       # miss rate for ReadReq accesses (Ratio)
system.cpu.icache.ReadReq.avgMissLatency::cpu.inst 65634.842930                       # average ReadReq miss latency ((Tick/Count))
system.cpu.icache.ReadReq.avgMissLatency::total 65634.842930                       # average ReadReq miss latency ((Tick/Count))
system.cpu.icache.ReadReq.mshrHits::cpu.inst          514                       # number of ReadReq MSHR hits (Count)
system.cpu.icache.ReadReq.mshrHits::total          514                       # number of ReadReq MSHR hits (Count)
system.cpu.icache.ReadReq.mshrMisses::cpu.inst         1848                       # number of ReadReq MSHR misses (Count)
system.cpu.icache.ReadReq.mshrMisses::total         1848                       # number of ReadReq MSHR misses (Count)
system.cpu.icache.ReadReq.mshrMissLatency::cpu.inst    121866500                       # number of ReadReq MSHR miss ticks (Tick)
system.cpu.icache.ReadReq.mshrMissLatency::total    121866500                       # number of ReadReq MSHR miss ticks (Tick)
system.cpu.icache.ReadReq.mshrMissRate::cpu.inst     0.000233                       # mshr miss rate for ReadReq accesses (Ratio)
system.cpu.icache.ReadReq.mshrMissRate::total     0.000233                       # mshr miss rate for ReadReq accesses (Ratio)
system.cpu.icache.ReadReq.avgMshrMissLatency::cpu.inst 65945.075758                       # average ReadReq mshr miss latency ((Tick/Count))
system.cpu.icache.ReadReq.avgMshrMissLatency::total 65945.075758                       # average ReadReq mshr miss latency ((Tick/Count))
system.cpu.icache.power_state.pwrStateResidencyTicks::UNDEFINED  76204661500                       # Cumulative time (in ticks) in various power states (Tick)
system.cpu.icache.tags.tagsInUse           255.948217                       # Average ticks per tags in use ((Tick/Count))
system.cpu.icache.tags.totalRefs               181808                       # Total number of references to valid blocks. (Count)
system.cpu.icache.tags.sampledRefs               1592                       # Sample count of references to valid blocks. (Count)
system.cpu.icache.tags.avgRefs             114.201005                       # Average number of references to valid blocks. ((Count/Count))
system.cpu.icache.tags.warmupTick               87500                       # The tick when the warmup percentage was hit. (Tick)
system.cpu.icache.tags.occupancies::cpu.inst   255.948217                       # Average occupied blocks per tick, per requestor ((Count/Tick))
system.cpu.icache.tags.avgOccs::cpu.inst     0.999798                       # Average percentage of cache occupancy ((Ratio/Tick))
system.cpu.icache.tags.avgOccs::total        0.999798                       # Average percentage of cache occupancy ((Ratio/Tick))
system.cpu.icache.tags.occupanciesTaskId::1024          256                       # Occupied blocks per task id (Count)
system.cpu.icache.tags.ageTaskId_1024::4          256                       # Occupied blocks per task id, per block age (Count)
system.cpu.icache.tags.ratioOccsTaskId::1024            1                       # Ratio of occupied blocks and all blocks, per task id (Ratio)
system.cpu.icache.tags.tagAccesses           31732512                       # Number of tag accesses (Count)
system.cpu.icache.tags.dataAccesses          31732512                       # Number of data accesses (Count)
system.cpu.icache.tags.power_state.pwrStateResidencyTicks::UNDEFINED  76204661500                       # Cumulative time (in ticks) in various power states (Tick)
system.cpu.iew.idleCycles                           0                       # Number of cycles IEW is idle (Cycle)
system.cpu.iew.squashCycles                     31857                       # Number of cycles IEW is squashing (Cycle)
system.cpu.iew.blockCycles                     968697                       # Number of cycles IEW is blocking (Cycle)
system.cpu.iew.unblockCycles                  1867829                       # Number of cycles IEW is unblocking (Cycle)
system.cpu.iew.dispatchedInsts              144971492                       # Number of instructions dispatched to IQ (Count)
system.cpu.iew.dispSquashedInsts                 3026                       # Number of squashed instructions skipped by dispatch (Count)
system.cpu.iew.dispLoadInsts                 36617125                       # Number of dispatched load instructions (Count)
system.cpu.iew.dispStoreInsts                 3443490                       # Number of dispatched store instructions (Count)
system.cpu.iew.dispNonSpecInsts                   172                       # Number of dispatched non-speculative instructions (Count)
system.cpu.iew.iqFullEvents                    213871                       # Number of times the IQ has become full, causing a stall (Count)
system.cpu.iew.lsqFullEvents                  1641895                       # Number of times the LSQ has become full, causing a stall (Count)
system.cpu.iew.memOrderViolationEvents            280                       # Number of memory order violations (Count)
system.cpu.iew.predictedTakenIncorrect          14945                       # Number of branches that were predicted taken incorrectly (Count)
system.cpu.iew.predictedNotTakenIncorrect        17126                       # Number of branches that were predicted not taken incorrectly (Count)
system.cpu.iew.branchMispredicts                32071                       # Number of branch mispredicts detected at execute (Count)
system.cpu.iew.instsToCommit                144398213                       # Cumulative count of insts sent to commit (Count)
system.cpu.iew.writebackCount               144385636                       # Cumulative count of insts written-back (Count)
system.cpu.iew.producerInst                 100370997                       # Number of instructions producing a value (Count)
system.cpu.iew.consumerInst                 178642482                       # Number of instructions consuming a value (Count)
system.cpu.iew.wbRate                        0.947354                       # Insts written-back per cycle ((Count/Cycle))
system.cpu.iew.wbFanout                      0.561854                       # Average fanout of values written-back ((Count/Count))
system.cpu.lsq0.forwLoads                       46279                       # Number of loads that had data forwarded from stores (Count)
system.cpu.lsq0.squashedLoads                  221600                       # Number of loads squashed (Count)
system.cpu.lsq0.ignoredResponses                   46                       # Number of memory responses ignored because the instruction is squashed (Count)
system.cpu.lsq0.memOrderViolation                 280                       # Number of memory ordering violations (Count)
system.cpu.lsq0.squashedStores                  58244                       # Number of stores squashed (Count)
system.cpu.lsq0.rescheduledLoads                16571                       # Number of loads that were rescheduled (Count)
system.cpu.lsq0.blockedByCache                 404514                       # Number of times an access to memory failed due to the cache being blocked (Count)
system.cpu.lsq0.loadToUse::samples           36395496                       # Distribution of cycle latency between the first time a load is issued and its completion (Unspecified)
system.cpu.lsq0.loadToUse::mean             12.728263                       # Distribution of cycle latency between the first time a load is issued and its completion (Unspecified)
system.cpu.lsq0.loadToUse::stdev            34.672465                       # Distribution of cycle latency between the first time a load is issued and its completion (Unspecified)
system.cpu.lsq0.loadToUse::0-9               30705201     84.37%     84.37% # Distribution of cycle latency between the first time a load is issued and its completion (Unspecified)
system.cpu.lsq0.loadToUse::10-19               413322      1.14%     85.50% # Distribution of cycle latency between the first time a load is issued and its completion (Unspecified)
system.cpu.lsq0.loadToUse::20-29              3240945      8.90%     94.41% # Distribution of cycle latency between the first time a load is issued and its completion (Unspecified)
system.cpu.lsq0.loadToUse::30-39                12739      0.04%     94.44% # Distribution of cycle latency between the first time a load is issued and its completion (Unspecified)
system.cpu.lsq0.loadToUse::40-49               630704      1.73%     96.17% # Distribution of cycle latency between the first time a load is issued and its completion (Unspecified)
system.cpu.lsq0.loadToUse::50-59                 3175      0.01%     96.18% # Distribution of cycle latency between the first time a load is issued and its completion (Unspecified)
[...]
system.mem_ctrls.dram.totQLat                 9396500                       # Total ticks spent queuing (Tick)
system.mem_ctrls.dram.totBusLat               2645000                       # Total ticks spent in databus transfers (Tick)
system.mem_ctrls.dram.totMemAccLat           19315250                       # Total ticks spent from burst creation until serviced by the DRAM (Tick)
system.mem_ctrls.dram.avgQLat                17762.76                       # Average queueing delay per DRAM burst ((Tick/Count))
system.mem_ctrls.dram.avgBusLat               5000.00                       # Average bus latency per DRAM burst ((Tick/Count))
system.mem_ctrls.dram.avgMemAccLat           36512.76                       # Average memory access latency per DRAM burst ((Tick/Count))
system.mem_ctrls.dram.readRowHits                 331                       # Number of row buffer hits during reads (Count)
system.mem_ctrls.dram.writeRowHits                 66                       # Number of row buffer hits during writes (Count)
system.mem_ctrls.dram.readRowHitRate            62.57                       # Row buffer hit rate for reads (Ratio)
system.mem_ctrls.dram.writeRowHitRate           67.35                       # Row buffer hit rate for writes (Ratio)
system.mem_ctrls.dram.bytesPerActivate::samples          224                       # Bytes accessed per row activation (Byte)
system.mem_ctrls.dram.bytesPerActivate::mean          174                       # Bytes accessed per row activation (Byte)
system.mem_ctrls.dram.bytesPerActivate::gmean   125.470053                       # Bytes accessed per row activation (Byte)
system.mem_ctrls.dram.bytesPerActivate::stdev   171.177300                       # Bytes accessed per row activation (Byte)
system.mem_ctrls.dram.bytesPerActivate::64-127          103     45.98%     45.98% # Bytes accessed per row activation (Byte)
system.mem_ctrls.dram.bytesPerActivate::128-191           48     21.43%     67.41% # Bytes accessed per row activation (Byte)
system.mem_ctrls.dram.bytesPerActivate::192-255           21      9.38%     76.79% # Bytes accessed per row activation (Byte)
system.mem_ctrls.dram.bytesPerActivate::256-319           13      5.80%     82.59% # Bytes accessed per row activation (Byte)
system.mem_ctrls.dram.bytesPerActivate::320-383           12      5.36%     87.95% # Bytes accessed per row activation (Byte)
system.mem_ctrls.dram.bytesPerActivate::384-447           10      4.46%     92.41% # Bytes accessed per row activation (Byte)
system.mem_ctrls.dram.bytesPerActivate::448-511            2      0.89%     93.30% # Bytes accessed per row activation (Byte)
system.mem_ctrls.dram.bytesPerActivate::512-575            2      0.89%     94.20% # Bytes accessed per row activation (Byte)
system.mem_ctrls.dram.bytesPerActivate::576-639            2      0.89%     95.09% # Bytes accessed per row activation (Byte)
system.mem_ctrls.dram.bytesPerActivate::640-703            6      2.68%     97.77% # Bytes accessed per row activation (Byte)
system.mem_ctrls.dram.bytesPerActivate::704-767            1      0.45%     98.21% # Bytes accessed per row activation (Byte)
system.mem_ctrls.dram.bytesPerActivate::768-831            1      0.45%     98.66% # Bytes accessed per row activation (Byte)
system.mem_ctrls.dram.bytesPerActivate::896-959            1      0.45%     99.11% # Bytes accessed per row activation (Byte)
system.mem_ctrls.dram.bytesPerActivate::960-1023            2      0.89%    100.00% # Bytes accessed per row activation (Byte)
system.mem_ctrls.dram.bytesPerActivate::total          224                       # Bytes accessed per row activation (Byte)
system.mem_ctrls.dram.bytesRead                 33856                       # Total bytes read (Byte)
system.mem_ctrls.dram.bytesWritten               6272                       # Total bytes written (Byte)
system.mem_ctrls.dram.avgRdBW             1272.758031                       # Average DRAM read bandwidth in MiBytes/s ((Byte/Second))
system.mem_ctrls.dram.avgWrBW              235.785042                       # Average DRAM write bandwidth in MiBytes/s ((Byte/Second))
system.mem_ctrls.dram.peakBW                 12800.00                       # Theoretical peak bandwidth in MiByte/s ((Byte/Second))
system.mem_ctrls.dram.busUtil                   11.79                       # Data bus utilization in percentage (Ratio)
system.mem_ctrls.dram.busUtilRead                9.94                       # Data bus utilization in percentage for reads (Ratio)
system.mem_ctrls.dram.busUtilWrite               1.84                       # Data bus utilization in percentage for writes (Ratio)
system.mem_ctrls.dram.pageHitRate               63.32                       # Row buffer hit rate, read and write combined (Ratio)
system.mem_ctrls.dram.power_state.pwrStateResidencyTicks::UNDEFINED     26600500                       # Cumulative time (in ticks) in various power states (Tick)
system.mem_ctrls.dram.rank0.actEnergy          849660                       # Energy for activate commands per rank (pJ) (Joule)
system.mem_ctrls.dram.rank0.preEnergy          440220                       # Energy for precharge commands per rank (pJ) (Joule)
system.mem_ctrls.dram.rank0.readEnergy        2034900                       # Energy for read commands per rank (pJ) (Joule)
system.mem_ctrls.dram.rank0.writeEnergy        125280                       # Energy for write commands per rank (pJ) (Joule)
system.mem_ctrls.dram.rank0.refreshEnergy 1843920.000000                       # Energy for refresh commands per rank (pJ) (Joule)
system.mem_ctrls.dram.rank0.actBackEnergy     12091980                       # Energy for active background per rank (pJ) (Joule)
system.mem_ctrls.dram.rank0.preBackEnergy        31680                       # Energy for precharge background per rank (pJ) (Joule)
system.mem_ctrls.dram.rank0.actPowerDownEnergy            0                       # Energy for active power-down per rank (pJ) (Joule)
system.mem_ctrls.dram.rank0.prePowerDownEnergy            0                       # Energy for precharge power-down per rank (pJ) (Joule)
system.mem_ctrls.dram.rank0.selfRefreshEnergy            0                       # Energy for self refresh per rank (pJ) (Joule)
system.mem_ctrls.dram.rank0.totalEnergy      17417640                       # Total energy per rank (pJ) (Joule)
system.mem_ctrls.dram.rank0.averagePower   654.786188                       # Core power per rank (mW) (Watt)
system.mem_ctrls.dram.rank0.totalIdleTime            0                       # Total Idle time Per DRAM Rank (Tick)
system.mem_ctrls.dram.rank0.pwrStateTime::IDLE            0                       # Time in different power states (Tick)
system.mem_ctrls.dram.rank0.pwrStateTime::REF       780000                       # Time in different power states (Tick)
system.mem_ctrls.dram.rank0.pwrStateTime::SREF            0                       # Time in different power states (Tick)
system.mem_ctrls.dram.rank0.pwrStateTime::PRE_PDN            0                       # Time in different power states (Tick)
system.mem_ctrls.dram.rank0.pwrStateTime::ACT     25820500                       # Time in different power states (Tick)
system.mem_ctrls.dram.rank0.pwrStateTime::ACT_PDN            0                       # Time in different power states (Tick)
system.mem_ctrls.dram.rank1.actEnergy          792540                       # Energy for activate commands per rank (pJ) (Joule)
system.mem_ctrls.dram.rank1.preEnergy          409860                       # Energy for precharge commands per rank (pJ) (Joule)
system.mem_ctrls.dram.rank1.readEnergy        1742160                       # Energy for read commands per rank (pJ) (Joule)
system.mem_ctrls.dram.rank1.writeEnergy        386280                       # Energy for write commands per rank (pJ) (Joule)
system.mem_ctrls.dram.rank1.refreshEnergy 1843920.000000                       # Energy for refresh commands per rank (pJ) (Joule)
system.mem_ctrls.dram.rank1.actBackEnergy     11991660                       # Energy for active background per rank (pJ) (Joule)
system.mem_ctrls.dram.rank1.preBackEnergy       116160                       # Energy for precharge background per rank (pJ) (Joule)
system.mem_ctrls.dram.rank1.actPowerDownEnergy            0                       # Energy for active power-down per rank (pJ) (Joule)
system.mem_ctrls.dram.rank1.prePowerDownEnergy            0                       # Energy for precharge power-down per rank (pJ) (Joule)
system.mem_ctrls.dram.rank1.selfRefreshEnergy            0                       # Energy for self refresh per rank (pJ) (Joule)
system.mem_ctrls.dram.rank1.totalEnergy      17282580                       # Total energy per rank (pJ) (Joule)
system.mem_ctrls.dram.rank1.averagePower   649.708840                       # Core power per rank (mW) (Watt)
system.mem_ctrls.dram.rank1.totalIdleTime            0                       # Total Idle time Per DRAM Rank (Tick)
system.mem_ctrls.dram.rank1.pwrStateTime::IDLE       219250                       # Time in different power states (Tick)
system.mem_ctrls.dram.rank1.pwrStateTime::REF       780000                       # Time in different power states (Tick)
system.mem_ctrls.dram.rank1.pwrStateTime::SREF            0                       # Time in different power states (Tick)
system.mem_ctrls.dram.rank1.pwrStateTime::PRE_PDN            0                       # Time in different power states (Tick)
system.mem_ctrls.dram.rank1.pwrStateTime::ACT     25601250                       # Time in different power states (Tick)
system.mem_ctrls.dram.rank1.pwrStateTime::ACT_PDN            0                       # Time in different power states (Tick)
system.mem_ctrls.power_state.pwrStateResidencyTicks::UNDEFINED     26600500                       # Cumulative time (in ticks) in various power states (Tick)
system.membus.transDist::ReadResp                 508                       # Transaction distribution (Count)
system.membus.transDist::WritebackDirty            92                       # Transaction distribution (Count)
system.membus.transDist::CleanEvict               616                       # Transaction distribution (Count)
system.membus.transDist::ReadExReq                 23                       # Transaction distribution (Count)
system.membus.transDist::ReadExResp                23                       # Transaction distribution (Count)
system.membus.transDist::ReadSharedReq            506                       # Transaction distribution (Count)
system.membus.transDist::InvalidateReq              2                       # Transaction distribution (Count)
system.membus.pktCount_system.l2.mem_side_port::system.mem_ctrls.port         1770                       # Packet count per connected requestor and responder (Count)
system.membus.pktCount::total                    1770                       # Packet count per connected requestor and responder (Count)
system.membus.pktSize_system.l2.mem_side_port::system.mem_ctrls.port        39872                       # Cumulative packet size per connected requestor and responder (Byte)
system.membus.pktSize::total                    39872                       # Cumulative packet size per connected requestor and responder (Byte)
system.membus.snoops                                0                       # Total snoops (Count)
system.membus.snoopTraffic                          0                       # Total snoop traffic (Byte)
system.membus.snoopFanout::samples                531                       # Request fanout histogram (Count)
system.membus.snoopFanout::mean                     0                       # Request fanout histogram (Count)
system.membus.snoopFanout::stdev                    0                       # Request fanout histogram (Count)
system.membus.snoopFanout::underflows               0      0.00%      0.00% # Request fanout histogram (Count)
system.membus.snoopFanout::0                      531    100.00%    100.00% # Request fanout histogram (Count)
system.membus.snoopFanout::1                        0      0.00%    100.00% # Request fanout histogram (Count)
system.membus.snoopFanout::overflows                0      0.00%    100.00% # Request fanout histogram (Count)
system.membus.snoopFanout::min_value                0                       # Request fanout histogram (Count)
system.membus.snoopFanout::max_value                0                       # Request fanout histogram (Count)
system.membus.snoopFanout::total                  531                       # Request fanout histogram (Count)
system.membus.power_state.pwrStateResidencyTicks::UNDEFINED     26600500                       # Cumulative time (in ticks) in various power states (Tick)
system.membus.reqLayer0.occupancy             1741500                       # Layer occupancy (ticks) (Tick)
system.membus.reqLayer0.utilization               0.1                       # Layer utilization (Ratio)
system.membus.respLayer1.occupancy            2848250                       # Layer occupancy (ticks) (Tick)
system.membus.respLayer1.utilization              0.1                       # Layer utilization (Ratio)
system.membus.snoop_filter.totRequests           1239                       # Total number of requests made to the snoop filter. (Count)
system.membus.snoop_filter.hitSingleRequests          708                       # Number of requests hitting in the snoop filter with a single holder of the requested data. (Count)
system.membus.snoop_filter.hitMultiRequests            0                       # Number of requests hitting in the snoop filter with multiple (>1) holders of the requested data. (Count)
system.membus.snoop_filter.totSnoops                0                       # Total number of snoops made to the snoop filter. (Count)
system.membus.snoop_filter.hitSingleSnoops            0                       # Number of snoops hitting in the snoop filter with a single holder of the requested data. (Count)
system.membus.snoop_filter.hitMultiSnoops            0                       # Number of snoops hitting in the snoop filter with multiple (>1) holders of the requested data. (Count)
system.tol2bus.transDist::ReadResp                530                       # Transaction distribution (Count)
system.tol2bus.transDist::WritebackDirty          139                       # Transaction distribution (Count)
system.tol2bus.transDist::WritebackClean          219                       # Transaction distribution (Count)
system.tol2bus.transDist::CleanEvict              905                       # Transaction distribution (Count)
system.tol2bus.transDist::ReadExReq                23                       # Transaction distribution (Count)
system.tol2bus.transDist::ReadExResp               23                       # Transaction distribution (Count)
system.tol2bus.transDist::ReadCleanReq            220                       # Transaction distribution (Count)
system.tol2bus.transDist::ReadSharedReq           308                       # Transaction distribution (Count)
system.tol2bus.transDist::InvalidateReq             2                       # Transaction distribution (Count)
system.tol2bus.transDist::InvalidateResp            2                       # Transaction distribution (Count)
system.tol2bus.pktCount_system.cpu.icache.mem_side_port::system.l2.cpu_side_port          658                       # Packet count per connected requestor and responder (Count)
system.tol2bus.pktCount_system.cpu.dcache.mem_side_port::system.l2.cpu_side_port         1005                       # Packet count per connected requestor and responder (Count)
system.tol2bus.pktCount::total                   1663                       # Packet count per connected requestor and responder (Count)
system.tol2bus.pktSize_system.cpu.icache.mem_side_port::system.l2.cpu_side_port        28032                       # Cumulative packet size per connected requestor and responder (Byte)
system.tol2bus.pktSize_system.cpu.dcache.mem_side_port::system.l2.cpu_side_port        24384                       # Cumulative packet size per connected requestor and responder (Byte)
system.tol2bus.pktSize::total                   52416                       # Cumulative packet size per connected requestor and responder (Byte)
system.tol2bus.snoops                             708                       # Total snoops (Count)
system.tol2bus.snoopTraffic                      5888                       # Total snoop traffic (Byte)
system.tol2bus.snoopFanout::samples              1261                       # Request fanout histogram (Count)
system.tol2bus.snoopFanout::mean                    0                       # Request fanout histogram (Count)
system.tol2bus.snoopFanout::stdev                   0                       # Request fanout histogram (Count)
system.tol2bus.snoopFanout::underflows              0      0.00%      0.00% # Request fanout histogram (Count)
system.tol2bus.snoopFanout::0                    1261    100.00%    100.00% # Request fanout histogram (Count)
system.tol2bus.snoopFanout::1                       0      0.00%    100.00% # Request fanout histogram (Count)
system.tol2bus.snoopFanout::2                       0      0.00%    100.00% # Request fanout histogram (Count)
system.tol2bus.snoopFanout::overflows               0      0.00%    100.00% # Request fanout histogram (Count)
system.tol2bus.snoopFanout::min_value               0                       # Request fanout histogram (Count)
system.tol2bus.snoopFanout::max_value               0                       # Request fanout histogram (Count)
system.tol2bus.snoopFanout::total                1261                       # Request fanout histogram (Count)
system.tol2bus.power_state.pwrStateResidencyTicks::UNDEFINED     26600500                       # Cumulative time (in ticks) in various power states (Tick)
system.tol2bus.reqLayer0.occupancy             820000                       # Layer occupancy (ticks) (Tick)
system.tol2bus.reqLayer0.utilization              0.0                       # Layer utilization (Ratio)
system.tol2bus.respLayer0.occupancy            328500                       # Layer occupancy (ticks) (Tick)
system.tol2bus.respLayer0.utilization             0.0                       # Layer utilization (Ratio)
system.tol2bus.respLayer1.occupancy            502000                       # Layer occupancy (ticks) (Tick)
system.tol2bus.respLayer1.utilization             0.0                       # Layer utilization (Ratio)
system.tol2bus.snoop_filter.totRequests          1108                       # Total number of requests made to the snoop filter. (Count)
system.tol2bus.snoop_filter.hitSingleRequests          555                       # Number of requests hitting in the snoop filter with a single holder of the requested data. (Count)
system.tol2bus.snoop_filter.hitMultiRequests            0                       # Number of requests hitting in the snoop filter with multiple (>1) holders of the requested data. (Count)
system.tol2bus.snoop_filter.totSnoops               0                       # Total number of snoops made to the snoop filter. (Count)
system.tol2bus.snoop_filter.hitSingleSnoops            0                       # Number of snoops hitting in the snoop filter with a single holder of the requested data. (Count)
system.tol2bus.snoop_filter.hitMultiSnoops            0                       # Number of snoops hitting in the snoop filter with multiple (>1) holders of the requested data. (Count)
system.voltage_domain.voltage                       1                       # Voltage in Volts (Volt)
system.workload.inst.arm                            0                       # number of arm instructions executed (Count)
system.workload.inst.quiesce                        0                       # number of quiesce instructions executed (Count)

---------- End Simulation Statistics   ----------
