
---------- Begin Simulation Statistics ----------
simSeconds                                   0.035558                       # Number of seconds simulated (Second)
simTicks                                  35557951000                       # Number of ticks simulated (Tick)
finalTick                                 36546567000                       # Number of ticks from beginning of simulation (restored from checkpoints and never reset) (Tick)
simFreq                                  1000000000000                       # The number of ticks per simulated second ((Tick/Second))
hostSeconds                                    160.83                       # Real time elapsed on the host (Second)
hostTickRate                                221094968                       # The number of ticks simulated per host second (ticks/s) ((Tick/Second))
hostMemory                                     680120                       # Number of bytes of host memory used (Byte)
simInsts                                     17822922                       # Number of instructions simulated (Count)
simOps                                       21477813                       # Number of ops (including micro ops) simulated (Count)
hostInstRate                                   110820                       # Simulator instruction rate (inst/s) ((Count/Second))
hostOpRate                                     133546                       # Simulator op (including micro ops) rate (op/s) ((Count/Second))
system.clk_domain.clock                          1000                       # Clock period in ticks (Tick)
system.cpu.numCycles                         71115902                       # Number of cpu cycles simulated (Cycle)
system.cpu.numWorkItemsStarted                      0                       # Number of work items this cpu started (Count)
system.cpu.numWorkItemsCompleted                    0                       # Number of work items this cpu completed (Count)
system.cpu.instsAdded                        19744661                       # Number of instructions added to the IQ (excludes non-spec) (Count)
system.cpu.nonSpecInstsAdded                        2                       # Number of non-speculative instructions added to the IQ (Count)
system.cpu.instsIssued                       35774735                       # Number of instructions issued (Count)
system.cpu.squashedInstsIssued                  35755                       # Number of squashed instructions issued (Count)
system.cpu.squashedInstsExamined               193153                       # Number of squashed instructions iterated over during squash; mainly for profiling (Count)
system.cpu.squashedOperandsExamined            491655                       # Number of squashed operands that are examined and possibly removed from graph (Count)
system.cpu.squashedNonSpecRemoved                   1                       # Number of squashed non-spec instructions that were removed (Count)
system.cpu.numIssuedDist::samples            71110049                       # Number of insts issued each cycle (Count)
system.cpu.numIssuedDist::mean               0.503090                       # Number of insts issued each cycle (Count)
system.cpu.numIssuedDist::stdev              1.333079                       # Number of insts issued each cycle (Count)
system.cpu.numIssuedDist::underflows                0      0.00%      0.00% # Number of insts issued each cycle (Count)
system.cpu.numIssuedDist::0                  59984152     84.35%     84.35% # Number of insts issued each cycle (Count)
system.cpu.numIssuedDist::1                   2313635      3.25%     87.61% # Number of insts issued each cycle (Count)
system.cpu.numIssuedDist::2                   1771477      2.49%     90.10% # Number of insts issued each cycle (Count)
system.cpu.numIssuedDist::3                   1684107      2.37%     92.47% # Number of insts issued each cycle (Count)
system.cpu.numIssuedDist::4                   3014546      4.24%     96.71% # Number of insts issued each cycle (Count)
system.cpu.numIssuedDist::5                   1620594      2.28%     98.99% # Number of insts issued each cycle (Count)
system.cpu.numIssuedDist::6                    449748      0.63%     99.62% # Number of insts issued each cycle (Count)
system.cpu.numIssuedDist::7                    168137      0.24%     99.85% # Number of insts issued each cycle (Count)
system.cpu.numIssuedDist::8                    103653      0.15%    100.00% # Number of insts issued each cycle (Count)
system.cpu.numIssuedDist::overflows                 0      0.00%    100.00% # Number of insts issued each cycle (Count)
system.cpu.numIssuedDist::min_value                 0                       # Number of insts issued each cycle (Count)
system.cpu.numIssuedDist::max_value                 8                       # Number of insts issued each cycle (Count)
system.cpu.numIssuedDist::total              71110049                       # Number of insts issued each cycle (Count)
system.cpu.statFuBusy::No_OpClass                   0      0.00%      0.00% # attempts to use FU when none available (Count)
system.cpu.statFuBusy::IntAlu                       6      0.00%      0.00% # attempts to use FU when none available (Count)
system.cpu.statFuBusy::IntMult                      0      0.00%      0.00% # attempts to use FU when none available (Count)
system.cpu.statFuBusy::IntDiv                       0      0.00%      0.00% # attempts to use FU when none available (Count)
system.cpu.statFuBusy::FloatAdd                     0      0.00%      0.00% # attempts to use FU when none available (Count)
system.cpu.statFuBusy::FloatCmp                     0      0.00%      0.00% # attempts to use FU when none available (Count)
system.cpu.statFuBusy::FloatCvt                     0      0.00%      0.00% # attempts to use FU when none available (Count)
system.cpu.statFuBusy::FloatMult                    0      0.00%      0.00% # attempts to use FU when none available (Count)
system.cpu.statFuBusy::FloatMultAcc                 0      0.00%      0.00% # attempts to use FU when none available (Count)
system.cpu.statFuBusy::FloatDiv                     0      0.00%      0.00% # attempts to use FU when none available (Count)
system.cpu.statFuBusy::FloatMisc                    0      0.00%      0.00% # attempts to use FU when none available (Count)
system.cpu.statFuBusy::FloatSqrt                    0      0.00%      0.00% # attempts to use FU when none available (Count)
system.cpu.statFuBusy::SimdAdd                    248      0.01%      0.01% # attempts to use FU when none available (Count)
system.cpu.statFuBusy::SimdAddAcc                   0      0.00%      0.01% # attempts to use FU when none available (Count)
system.cpu.statFuBusy::SimdAlu                    665      0.02%      0.03% # attempts to use FU when none available (Count)
system.cpu.statFuBusy::SimdCmp                      0      0.00%      0.03% # attempts to use FU when none available (Count)
system.cpu.statFuBusy::SimdCvt                      0      0.00%      0.03% # attempts to use FU when none available (Count)
system.cpu.statFuBusy::SimdMisc                   497      0.02%      0.05% # attempts to use FU when none available (Count)
system.cpu.statFuBusy::SimdMult                  6728      0.21%      0.26% # attempts to use FU when none available (Count)
system.cpu.statFuBusy::SimdMultAcc                  0      0.00%      0.26% # attempts to use FU when none available (Count)
system.cpu.statFuBusy::SimdShift                    0      0.00%      0.26% # attempts to use FU when none available (Count)
system.cpu.statFuBusy::SimdShiftAcc                 0      0.00%      0.26% # attempts to use FU when none available (Count)
system.cpu.statFuBusy::SimdDiv                      0      0.00%      0.26% # attempts to use FU when none available (Count)
system.cpu.statFuBusy::SimdSqrt                     0      0.00%      0.26% # attempts to use FU when none available (Count)
system.cpu.statFuBusy::SimdFloatAdd                 0      0.00%      0.26% # attempts to use FU when none available (Count)
system.cpu.statFuBusy::SimdFloatAlu                 0      0.00%      0.26% # attempts to use FU when none available (Count)
system.cpu.statFuBusy::SimdFloatCmp                 0      0.00%      0.26% # attempts to use FU when none available (Count)
system.cpu.statFuBusy::SimdFloatCvt                 0      0.00%      0.26% # attempts to use FU when none available (Count)
system.cpu.statFuBusy::SimdFloatDiv                 0      0.00%      0.26% # attempts to use FU when none available (Count)
system.cpu.statFuBusy::SimdFloatMisc                0      0.00%      0.26% # attempts to use FU when none available (Count)
system.cpu.statFuBusy::SimdFloatMult                0      0.00%      0.26% # attempts to use FU when none available (Count)
system.cpu.statFuBusy::SimdFloatMultAcc             0      0.00%      0.26% # attempts to use FU when none available (Count)
system.cpu.statFuBusy::SimdFloatSqrt                0      0.00%      0.26% # attempts to use FU when none available (Count)
system.cpu.statFuBusy::SimdReduceAdd                0      0.00%      0.26% # attempts to use FU when none available (Count)
system.cpu.statFuBusy::SimdReduceAlu                0      0.00%      0.26% # attempts to use FU when none available (Count)
system.cpu.statFuBusy::SimdReduceCmp                0      0.00%      0.26% # attempts to use FU when none available (Count)
system.cpu.statFuBusy::SimdFloatReduceAdd            0      0.00%      0.26% # attempts to use FU when none available (Count)
system.cpu.statFuBusy::SimdFloatReduceCmp            0      0.00%      0.26% # attempts to use FU when none available (Count)
system.cpu.statFuBusy::SimdAes                      0      0.00%      0.26% # attempts to use FU when none available (Count)
system.cpu.statFuBusy::SimdAesMix                   0      0.00%      0.26% # attempts to use FU when none available (Count)
system.cpu.statFuBusy::SimdSha1Hash                 0      0.00%      0.26% # attempts to use FU when none available (Count)
system.cpu.statFuBusy::SimdSha1Hash2                0      0.00%      0.26% # attempts to use FU when none available (Count)
system.cpu.statFuBusy::SimdSha256Hash               0      0.00%      0.26% # attempts to use FU when none available (Count)
system.cpu.statFuBusy::SimdSha256Hash2              0      0.00%      0.26% # attempts to use FU when none available (Count)
system.cpu.statFuBusy::SimdShaSigma2                0      0.00%      0.26% # attempts to use FU when none available (Count)
system.cpu.statFuBusy::SimdShaSigma3                0      0.00%      0.26% # attempts to use FU when none available (Count)
system.cpu.statFuBusy::SimdPredAlu                  0      0.00%      0.26% # attempts to use FU when none available (Count)
system.cpu.statFuBusy::MemRead                3121378     99.74%    100.00% # attempts to use FU when none available (Count)
system.cpu.statFuBusy::MemWrite                    40      0.00%    100.00% # attempts to use FU when none available (Count)
system.cpu.statFuBusy::FloatMemRead                 0      0.00%    100.00% # attempts to use FU when none available (Count)
system.cpu.statFuBusy::FloatMemWrite                0      0.00%    100.00% # attempts to use FU when none available (Count)
system.cpu.statFuBusy::IprAccess                    0      0.00%    100.00% # attempts to use FU when none available (Count)
system.cpu.statFuBusy::InstPrefetch                 0      0.00%    100.00% # attempts to use FU when none available (Count)
system.cpu.statIssuedInstType_0::No_OpClass      1129012      3.16%      3.16% # Number of instructions issued per FU type, per thread (Count)
system.cpu.statIssuedInstType_0::IntAlu       7122707     19.91%     23.07% # Number of instructions issued per FU type, per thread (Count)
system.cpu.statIssuedInstType_0::IntMult          220      0.00%     23.07% # Number of instructions issued per FU type, per thread (Count)
system.cpu.statIssuedInstType_0::IntDiv             0      0.00%     23.07% # Number of instructions issued per FU type, per thread (Count)
system.cpu.statIssuedInstType_0::FloatAdd            0      0.00%     23.07% # Number of instructions issued per FU type, per thread (Count)
system.cpu.statIssuedInstType_0::FloatCmp            0      0.00%     23.07% # Number of instructions issued per FU type, per thread (Count)
system.cpu.statIssuedInstType_0::FloatCvt            0      0.00%     23.07% # Number of instructions issued per FU type, per thread (Count)
system.cpu.statIssuedInstType_0::FloatMult            0      0.00%     23.07% # Number of instructions issued per FU type, per thread (Count)
system.cpu.statIssuedInstType_0::FloatMultAcc            0      0.00%     23.07% # Number of instructions issued per FU type, per thread (Count)
system.cpu.statIssuedInstType_0::FloatDiv            0      0.00%     23.07% # Number of instructions issued per FU type, per thread (Count)
system.cpu.statIssuedInstType_0::FloatMisc            0      0.00%     23.07% # Number of instructions issued per FU type, per thread (Count)
system.cpu.statIssuedInstType_0::FloatSqrt            0      0.00%     23.07% # Number of instructions issued per FU type, per thread (Count)
system.cpu.statIssuedInstType_0::SimdAdd      2266718      6.34%     29.40% # Number of instructions issued per FU type, per thread (Count)
system.cpu.statIssuedInstType_0::SimdAddAcc            0      0.00%     29.40% # Number of instructions issued per FU type, per thread (Count)
system.cpu.statIssuedInstType_0::SimdAlu         1226      0.00%     29.41% # Number of instructions issued per FU type, per thread (Count)
system.cpu.statIssuedInstType_0::SimdCmp            0      0.00%     29.41% # Number of instructions issued per FU type, per thread (Count)
system.cpu.statIssuedInstType_0::SimdCvt            0      0.00%     29.41% # Number of instructions issued per FU type, per thread (Count)
system.cpu.statIssuedInstType_0::SimdMisc      2266700      6.34%     35.74% # Number of instructions issued per FU type, per thread (Count)
system.cpu.statIssuedInstType_0::SimdMult      2266724      6.34%     42.08% # Number of instructions issued per FU type, per thread (Count)
system.cpu.statIssuedInstType_0::SimdMultAcc            0      0.00%     42.08% # Number of instructions issued per FU type, per thread (Count)
system.cpu.statIssuedInstType_0::SimdShift            0      0.00%     42.08% # Number of instructions issued per FU type, per thread (Count)
system.cpu.statIssuedInstType_0::SimdShiftAcc            0      0.00%     42.08% # Number of instructions issued per FU type, per thread (Count)
system.cpu.statIssuedInstType_0::SimdDiv            0      0.00%     42.08% # Number of instructions issued per FU type, per thread (Count)
system.cpu.statIssuedInstType_0::SimdSqrt            0      0.00%     42.08% # Number of instructions issued per FU type, per thread (Count)
system.cpu.statIssuedInstType_0::SimdFloatAdd            0      0.00%     42.08% # Number of instructions issued per FU type, per thread (Count)
system.cpu.statIssuedInstType_0::SimdFloatAlu            0      0.00%     42.08% # Number of instructions issued per FU type, per thread (Count)
system.cpu.statIssuedInstType_0::SimdFloatCmp            0      0.00%     42.08% # Number of instructions issued per FU type, per thread (Count)
system.cpu.statIssuedInstType_0::SimdFloatCvt            0      0.00%     42.08% # Number of instructions issued per FU type, per thread (Count)
system.cpu.statIssuedInstType_0::SimdFloatDiv            0      0.00%     42.08% # Number of instructions issued per FU type, per thread (Count)
system.cpu.statIssuedInstType_0::SimdFloatMisc            0      0.00%     42.08% # Number of instructions issued per FU type, per thread (Count)
system.cpu.statIssuedInstType_0::SimdFloatMult            0      0.00%     42.08% # Number of instructions issued per FU type, per thread (Count)
system.cpu.statIssuedInstType_0::SimdFloatMultAcc            0      0.00%     42.08% # Number of instructions issued per FU type, per thread (Count)
system.cpu.statIssuedInstType_0::SimdFloatSqrt            0      0.00%     42.08% # Number of instructions issued per FU type, per thread (Count)
system.cpu.statIssuedInstType_0::SimdReduceAdd            0      0.00%     42.08% # Number of instructions issued per FU type, per thread (Count)
system.cpu.statIssuedInstType_0::SimdReduceAlu            0      0.00%     42.08% # Number of instructions issued per FU type, per thread (Count)
system.cpu.statIssuedInstType_0::SimdReduceCmp            0      0.00%     42.08% # Number of instructions issued per FU type, per thread (Count)
system.cpu.statIssuedInstType_0::SimdFloatReduceAdd            0      0.00%     42.08% # Number of instructions issued per FU type, per thread (Count)
system.cpu.statIssuedInstType_0::SimdFloatReduceCmp            0      0.00%     42.08% # Number of instructions issued per FU type, per thread (Count)
system.cpu.statIssuedInstType_0::SimdAes            0      0.00%     42.08% # Number of instructions issued per FU type, per thread (Count)
system.cpu.statIssuedInstType_0::SimdAesMix            0      0.00%     42.08% # Number of instructions issued per FU type, per thread (Count)
system.cpu.statIssuedInstType_0::SimdSha1Hash            0      0.00%     42.08% # Number of instructions issued per FU type, per thread (Count)
system.cpu.statIssuedInstType_0::SimdSha1Hash2            0      0.00%     42.08% # Number of instructions issued per FU type, per thread (Count)
system.cpu.statIssuedInstType_0::SimdSha256Hash            0      0.00%     42.08% # Number of instructions issued per FU type, per thread (Count)
system.cpu.statIssuedInstType_0::SimdSha256Hash2            0      0.00%     42.08% # Number of instructions issued per FU type, per thread (Count)
system.cpu.statIssuedInstType_0::SimdShaSigma2            0      0.00%     42.08% # Number of instructions issued per FU type, per thread (Count)
system.cpu.statIssuedInstType_0::SimdShaSigma3            0      0.00%     42.08% # Number of instructions issued per FU type, per thread (Count)
system.cpu.statIssuedInstType_0::SimdPredAlu            0      0.00%     42.08% # Number of instructions issued per FU type, per thread (Count)
system.cpu.statIssuedInstType_0::MemRead     19587652     54.75%     96.83% # Number of instructions issued per FU type, per thread (Count)
system.cpu.statIssuedInstType_0::MemWrite      1133776      3.17%    100.00% # Number of instructions issued per FU type, per thread (Count)
system.cpu.statIssuedInstType_0::FloatMemRead            0      0.00%    100.00% # Number of instructions issued per FU type, per thread (Count)
system.cpu.statIssuedInstType_0::FloatMemWrite            0      0.00%    100.00% # Number of instructions issued per FU type, per thread (Count)
system.cpu.statIssuedInstType_0::IprAccess            0      0.00%    100.00% # Number of instructions issued per FU type, per thread (Count)
system.cpu.statIssuedInstType_0::InstPrefetch            0      0.00%    100.00% # Number of instructions issued per FU type, per thread (Count)
system.cpu.statIssuedInstType_0::total       35774735                       # Number of instructions issued per FU type, per thread (Count)
system.cpu.issueRate                         0.503048                       # Inst issue rate ((Count/Cycle))
system.cpu.fuBusy                             3129562                       # FU busy when requested (Count)
system.cpu.fuBusyRate                        0.087480                       # FU busy rate (busy events/executed inst) ((Count/Count))
system.cpu.intInstQueueReads                100634965                       # Number of integer instruction queue reads (Count)
system.cpu.intInstQueueWrites                 9470372                       # Number of integer instruction queue writes (Count)
system.cpu.intInstQueueWakeupAccesses         9384737                       # Number of integer instruction queue wakeup accesses (Count)
system.cpu.fpInstQueueReads                         0                       # Number of floating instruction queue reads (Count)
system.cpu.fpInstQueueWrites                        0                       # Number of floating instruction queue writes (Count)
system.cpu.fpInstQueueWakeupAccesses                0                       # Number of floating instruction queue wakeup accesses (Count)
system.cpu.vecInstQueueReads                 45189871                       # Number of vector instruction queue reads (Count)
system.cpu.vecInstQueueWrites                10467488                       # Number of vector instruction queue writes (Count)
system.cpu.vecInstQueueWakeupAccesses        10188543                       # Number of vector instruction queue wakeup accesses (Count)
system.cpu.intAluAccesses                    15178784                       # Number of integer alu accesses (Count)
system.cpu.fpAluAccesses                            0                       # Number of floating point alu accesses (Count)
system.cpu.vecAluAccesses                    22596501                       # Number of vector alu accesses (Count)
system.cpu.numInsts                          35758342                       # Number of executed instructions (Count)
system.cpu.numLoadInsts                      19578977                       # Number of load instructions executed (Count)
system.cpu.numSquashedInsts                     16393                       # Number of squashed instructions skipped in execute (Count)
system.cpu.numSwp                                   0                       # Number of swp insts executed (Count)
system.cpu.numNop                                 975                       # Number of nop insts executed (Count)
system.cpu.numRefs                           20712753                       # Number of memory reference insts executed (Count)
system.cpu.numBranches                        1176992                       # Number of branches executed (Count)
system.cpu.numStoreInsts                      1133776                       # Number of stores executed (Count)
system.cpu.numRate                           0.502818                       # Inst execution rate ((Count/Cycle))
system.cpu.timesIdled                              65                       # Number of times that the entire CPU went into an idle state and unscheduled itself (Count)
system.cpu.idleCycles                            5853                       # Total number of cycles that the CPU has spent unscheduled due to idling (Cycle)
system.cpu.committedInsts                    16165567                       # Number of Instructions Simulated (Count)
system.cpu.committedOps                      19551360                       # Number of Ops (including micro ops) Simulated (Count)
system.cpu.cpi                               4.399221                       # CPI: Cycles Per Instruction ((Cycle/Count))
system.cpu.totalCpi                          4.399221                       # CPI: Total CPI of All Threads ((Cycle/Count))
system.cpu.ipc                               0.227313                       # IPC: Instructions Per Cycle ((Count/Cycle))
system.cpu.totalIpc                          0.227313                       # IPC: Total IPC of All Threads ((Count/Cycle))
system.cpu.intRegfileReads                   32531288                       # Number of integer regfile reads (Count)
system.cpu.intRegfileWrites                   8163715                       # Number of integer regfile writes (Count)
system.cpu.vecRegfileReads                   21507211                       # number of vector regfile reads (Count)
system.cpu.ccRegfileReads                     3530949                       # number of cc regfile reads (Count)
system.cpu.ccRegfileWrites                    3531186                       # number of cc regfile writes (Count)
system.cpu.miscRegfileReads                  41720757                       # number of misc regfile reads (Count)
system.cpu.MemDepUnit__0.insertedLoads        3441408                       # Number of loads inserted to the mem dependence unit. (Count)
system.cpu.MemDepUnit__0.insertedStores       1138066                       # Number of stores inserted to the mem dependence unit. (Count)
system.cpu.MemDepUnit__0.conflictingLoads          212                       # Number of conflicting loads. (Count)
system.cpu.MemDepUnit__0.conflictingStores           27                       # Number of conflicting stores. (Count)
system.cpu.MemDepUnit__1.insertedLoads              0                       # Number of loads inserted to the mem dependence unit. (Count)
system.cpu.MemDepUnit__1.insertedStores             0                       # Number of stores inserted to the mem dependence unit. (Count)
system.cpu.MemDepUnit__1.conflictingLoads            0                       # Number of conflicting loads. (Count)
system.cpu.MemDepUnit__1.conflictingStores            0                       # Number of conflicting stores. (Count)
system.cpu.MemDepUnit__2.insertedLoads              0                       # Number of loads inserted to the mem dependence unit. (Count)
system.cpu.MemDepUnit__2.insertedStores             0                       # Number of stores inserted to the mem dependence unit. (Count)
system.cpu.MemDepUnit__2.conflictingLoads            0                       # Number of conflicting loads. (Count)
system.cpu.MemDepUnit__2.conflictingStores            0                       # Number of conflicting stores. (Count)
system.cpu.MemDepUnit__3.insertedLoads              0                       # Number of loads inserted to the mem dependence unit. (Count)
system.cpu.MemDepUnit__3.insertedStores             0                       # Number of stores inserted to the mem dependence unit. (Count)
system.cpu.MemDepUnit__3.conflictingLoads            0                       # Number of conflicting loads. (Count)
system.cpu.MemDepUnit__3.conflictingStores            0                       # Number of conflicting stores. (Count)
system.cpu.branchPred.lookups                 1241262                       # Number of BP lookups (Count)
system.cpu.branchPred.condPredicted           1241186                       # Number of conditional branches predicted (Count)
system.cpu.branchPred.condIncorrect             24454                       # Number of conditional branches incorrect (Count)
system.cpu.branchPred.BTBLookups              1217216                       # Number of BTB lookups (Count)
system.cpu.branchPred.BTBUpdates                   35                       # Number of BTB updates (Count)
system.cpu.branchPred.BTBHits                 1217200                       # Number of BTB hits (Count)
system.cpu.branchPred.BTBHitRatio            0.999987                       # BTB Hit Ratio (Ratio)
system.cpu.branchPred.RASUsed                       2                       # Number of times the RAS was used to get a target. (Count)
system.cpu.branchPred.RASIncorrect                  0                       # Number of incorrect RAS predictions. (Count)
system.cpu.branchPred.indirectLookups              61                       # Number of indirect predictor lookups. (Count)
system.cpu.branchPred.indirectHits                  0                       # Number of indirect target hits. (Count)
system.cpu.branchPred.indirectMisses               61                       # Number of indirect misses. (Count)
system.cpu.branchPred.indirectMispredicted            0                       # Number of mispredicted indirect branches. (Count)
system.cpu.commit.commitSquashedInsts          196236                       # The number of squashed insts skipped by commit (Count)
system.cpu.commit.commitNonSpecStalls               1                       # The number of times commit has been forced to stall to communicate backwards (Count)
system.cpu.commit.branchMispredicts             24452                       # The number of times a branch was mispredicted (Count)
system.cpu.commit.numCommittedDist::samples     71069983                       # Number of insts commited each cycle (Count)
system.cpu.commit.numCommittedDist::mean     0.275114                       # Number of insts commited each cycle (Count)
system.cpu.commit.numCommittedDist::stdev     1.253463                       # Number of insts commited each cycle (Count)
system.cpu.commit.numCommittedDist::underflows            0      0.00%      0.00% # Number of insts commited each cycle (Count)
system.cpu.commit.numCommittedDist::0        65400355     92.02%     92.02% # Number of insts commited each cycle (Count)
system.cpu.commit.numCommittedDist::1         2598772      3.66%     95.68% # Number of insts commited each cycle (Count)
system.cpu.commit.numCommittedDist::2         1013555      1.43%     97.11% # Number of insts commited each cycle (Count)
system.cpu.commit.numCommittedDist::3            8230      0.01%     97.12% # Number of insts commited each cycle (Count)
system.cpu.commit.numCommittedDist::4            9312      0.01%     97.13% # Number of insts commited each cycle (Count)
system.cpu.commit.numCommittedDist::5          233865      0.33%     97.46% # Number of insts commited each cycle (Count)
system.cpu.commit.numCommittedDist::6           10938      0.02%     97.47% # Number of insts commited each cycle (Count)
system.cpu.commit.numCommittedDist::7          730101      1.03%     98.50% # Number of insts commited each cycle (Count)
system.cpu.commit.numCommittedDist::8         1064855      1.50%    100.00% # Number of insts commited each cycle (Count)
system.cpu.commit.numCommittedDist::overflows            0      0.00%    100.00% # Number of insts commited each cycle (Count)
system.cpu.commit.numCommittedDist::min_value            0                       # Number of insts commited each cycle (Count)
system.cpu.commit.numCommittedDist::max_value            8                       # Number of insts commited each cycle (Count)
system.cpu.commit.numCommittedDist::total     71069983                       # Number of insts commited each cycle (Count)
system.cpu.commit.instsCommitted             16166527                       # Number of instructions committed (Count)
system.cpu.commit.opsCommitted               19552320                       # Number of ops (including micro ops) committed (Count)
system.cpu.commit.memRefs                     4527034                       # Number of memory references committed (Count)
system.cpu.commit.loads                       3393332                       # Number of loads committed (Count)
system.cpu.commit.amos                              0                       # Number of atomic instructions committed (Count)
system.cpu.commit.membars                           0                       # Number of memory barriers committed (Count)
system.cpu.commit.branches                    1175923                       # Number of branches committed (Count)
system.cpu.commit.vectorInstructions         10186954                       # Number of committed Vector instructions. (Count)
system.cpu.commit.floating                          0                       # Number of committed floating point instructions. (Count)
system.cpu.commit.integer                    12712581                       # Number of committed integer instructions. (Count)
system.cpu.commit.functionCalls                     1                       # Number of function calls committed. (Count)
system.cpu.commit.committedInstType_0::No_OpClass      1128842      5.77%      5.77% # Class of committed instruction (Count)
system.cpu.commit.committedInstType_0::IntAlu      7095814     36.29%     42.06% # Class of committed instruction (Count)
system.cpu.commit.committedInstType_0::IntMult          214      0.00%     42.07% # Class of committed instruction (Count)
system.cpu.commit.committedInstType_0::IntDiv            0      0.00%     42.07% # Class of committed instruction (Count)
system.cpu.commit.committedInstType_0::FloatAdd            0      0.00%     42.07% # Class of committed instruction (Count)
system.cpu.commit.committedInstType_0::FloatCmp            0      0.00%     42.07% # Class of committed instruction (Count)
system.cpu.commit.committedInstType_0::FloatCvt            0      0.00%     42.07% # Class of committed instruction (Count)
system.cpu.commit.committedInstType_0::FloatMult            0      0.00%     42.07% # Class of committed instruction (Count)
system.cpu.commit.committedInstType_0::FloatMultAcc            0      0.00%     42.07% # Class of committed instruction (Count)
system.cpu.commit.committedInstType_0::FloatDiv            0      0.00%     42.07% # Class of committed instruction (Count)
system.cpu.commit.committedInstType_0::FloatMisc            0      0.00%     42.07% # Class of committed instruction (Count)
system.cpu.commit.committedInstType_0::FloatSqrt            0      0.00%     42.07% # Class of committed instruction (Count)
system.cpu.commit.committedInstType_0::SimdAdd      2266400     11.59%     53.66% # Class of committed instruction (Count)
system.cpu.commit.committedInstType_0::SimdAddAcc            0      0.00%     53.66% # Class of committed instruction (Count)
system.cpu.commit.committedInstType_0::SimdAlu         1216      0.01%     53.66% # Class of committed instruction (Count)
system.cpu.commit.committedInstType_0::SimdCmp            0      0.00%     53.66% # Class of committed instruction (Count)
system.cpu.commit.committedInstType_0::SimdCvt            0      0.00%     53.66% # Class of committed instruction (Count)
system.cpu.commit.committedInstType_0::SimdMisc      2266400     11.59%     65.26% # Class of committed instruction (Count)
system.cpu.commit.committedInstType_0::SimdMult      2266400     11.59%     76.85% # Class of committed instruction (Count)
system.cpu.commit.committedInstType_0::SimdMultAcc            0      0.00%     76.85% # Class of committed instruction (Count)
system.cpu.commit.committedInstType_0::SimdShift            0      0.00%     76.85% # Class of committed instruction (Count)
system.cpu.commit.committedInstType_0::SimdShiftAcc            0      0.00%     76.85% # Class of committed instruction (Count)
system.cpu.commit.committedInstType_0::SimdDiv            0      0.00%     76.85% # Class of committed instruction (Count)
system.cpu.commit.committedInstType_0::SimdSqrt            0      0.00%     76.85% # Class of committed instruction (Count)
system.cpu.commit.committedInstType_0::SimdFloatAdd            0      0.00%     76.85% # Class of committed instruction (Count)
system.cpu.commit.committedInstType_0::SimdFloatAlu            0      0.00%     76.85% # Class of committed instruction (Count)
system.cpu.commit.committedInstType_0::SimdFloatCmp            0      0.00%     76.85% # Class of committed instruction (Count)
system.cpu.commit.committedInstType_0::SimdFloatCvt            0      0.00%     76.85% # Class of committed instruction (Count)
system.cpu.commit.committedInstType_0::SimdFloatDiv            0      0.00%     76.85% # Class of committed instruction (Count)
system.cpu.commit.committedInstType_0::SimdFloatMisc            0      0.00%     76.85% # Class of committed instruction (Count)
system.cpu.commit.committedInstType_0::SimdFloatMult            0      0.00%     76.85% # Class of committed instruction (Count)
system.cpu.commit.committedInstType_0::SimdFloatMultAcc            0      0.00%     76.85% # Class of committed instruction (Count)
system.cpu.commit.committedInstType_0::SimdFloatSqrt            0      0.00%     76.85% # Class of committed instruction (Count)
system.cpu.commit.committedInstType_0::SimdReduceAdd            0      0.00%     76.85% # Class of committed instruction (Count)
system.cpu.commit.committedInstType_0::SimdReduceAlu            0      0.00%     76.85% # Class of committed instruction (Count)
system.cpu.commit.committedInstType_0::SimdReduceCmp            0      0.00%     76.85% # Class of committed instruction (Count)
system.cpu.commit.committedInstType_0::SimdFloatReduceAdd            0      0.00%     76.85% # Class of committed instruction (Count)
system.cpu.commit.committedInstType_0::SimdFloatReduceCmp            0      0.00%     76.85% # Class of committed instruction (Count)
system.cpu.commit.committedInstType_0::SimdAes            0      0.00%     76.85% # Class of committed instruction (Count)
system.cpu.commit.committedInstType_0::SimdAesMix            0      0.00%     76.85% # Class of committed instruction (Count)
system.cpu.commit.committedInstType_0::SimdSha1Hash            0      0.00%     76.85% # Class of committed instruction (Count)
system.cpu.commit.committedInstType_0::SimdSha1Hash2            0      0.00%     76.85% # Class of committed instruction (Count)
system.cpu.commit.committedInstType_0::SimdSha256Hash            0      0.00%     76.85% # Class of committed instruction (Count)
system.cpu.commit.committedInstType_0::SimdSha256Hash2            0      0.00%     76.85% # Class of committed instruction (Count)
system.cpu.commit.committedInstType_0::SimdShaSigma2            0      0.00%     76.85% # Class of committed instruction (Count)
system.cpu.commit.committedInstType_0::SimdShaSigma3            0      0.00%     76.85% # Class of committed instruction (Count)
system.cpu.commit.committedInstType_0::SimdPredAlu            0      0.00%     76.85% # Class of committed instruction (Count)
system.cpu.commit.committedInstType_0::MemRead      3393332     17.36%     94.20% # Class of committed instruction (Count)
system.cpu.commit.committedInstType_0::MemWrite      1133702      5.80%    100.00% # Class of committed instruction (Count)
system.cpu.commit.committedInstType_0::FloatMemRead            0      0.00%    100.00% # Class of committed instruction (Count)
system.cpu.commit.committedInstType_0::FloatMemWrite            0      0.00%    100.00% # Class of committed instruction (Count)
system.cpu.commit.committedInstType_0::IprAccess            0      0.00%    100.00% # Class of committed instruction (Count)
system.cpu.commit.committedInstType_0::InstPrefetch            0      0.00%    100.00% # Class of committed instruction (Count)
system.cpu.commit.committedInstType_0::total     19552320                       # Class of committed instruction (Count)
system.cpu.commit.commitEligibleSamples       1064855                       # number cycles where commit BW limit reached (Cycle)
system.cpu.dcache.demandHits::cpu.data        1962012                       # number of demand (read+write) hits (Count)
system.cpu.dcache.demandHits::total           1962012                       # number of demand (read+write) hits (Count)
system.cpu.dcache.overallHits::cpu.data       1962012                       # number of overall hits (Count)
system.cpu.dcache.overallHits::total          1962012                       # number of overall hits (Count)
system.cpu.dcache.demandMisses::cpu.data      2567730                       # number of demand (read+write) misses (Count)
system.cpu.dcache.demandMisses::total         2567730                       # number of demand (read+write) misses (Count)
system.cpu.dcache.overallMisses::cpu.data      2567730                       # number of overall misses (Count)
system.cpu.dcache.overallMisses::total        2567730                       # number of overall misses (Count)
system.cpu.dcache.demandMissLatency::cpu.data 173880377000                       # number of demand (read+write) miss ticks (Tick)
system.cpu.dcache.demandMissLatency::total 173880377000                       # number of demand (read+write) miss ticks (Tick)
system.cpu.dcache.overallMissLatency::cpu.data 173880377000                       # number of overall miss ticks (Tick)
system.cpu.dcache.overallMissLatency::total 173880377000                       # number of overall miss ticks (Tick)
system.cpu.dcache.demandAccesses::cpu.data      4529742                       # number of demand (read+write) accesses (Count)
system.cpu.dcache.demandAccesses::total       4529742                       # number of demand (read+write) accesses (Count)
system.cpu.dcache.overallAccesses::cpu.data      4529742                       # number of overall (read+write) accesses (Count)
system.cpu.dcache.overallAccesses::total      4529742                       # number of overall (read+write) accesses (Count)
system.cpu.dcache.demandMissRate::cpu.data     0.566860                       # miss rate for demand accesses (Ratio)
system.cpu.dcache.demandMissRate::total      0.566860                       # miss rate for demand accesses (Ratio)
system.cpu.dcache.overallMissRate::cpu.data     0.566860                       # miss rate for overall accesses (Ratio)
system.cpu.dcache.overallMissRate::total     0.566860                       # miss rate for overall accesses (Ratio)
system.cpu.dcache.demandAvgMissLatency::cpu.data 67717.547016                       # average overall miss latency in ticks ((Tick/Count))
system.cpu.dcache.demandAvgMissLatency::total 67717.547016                       # average overall miss latency in ticks ((Tick/Count))
system.cpu.dcache.overallAvgMissLatency::cpu.data 67717.547016                       # average overall miss latency ((Tick/Count))
system.cpu.dcache.overallAvgMissLatency::total 67717.547016                       # average overall miss latency ((Tick/Count))
system.cpu.dcache.blockedCycles::no_mshrs     67729905                       # number of cycles access was blocked (Cycle)
system.cpu.dcache.blockedCycles::no_targets            0                       # number of cycles access was blocked (Cycle)
system.cpu.dcache.blockedCauses::no_mshrs      1724752                       # number of times access was blocked (Count)
system.cpu.dcache.blockedCauses::no_targets            1                       # number of times access was blocked (Count)
system.cpu.dcache.avgBlocked::no_mshrs      39.269359                       # average number of cycles each access was blocked ((Cycle/Count))
system.cpu.dcache.avgBlocked::no_targets            0                       # average number of cycles each access was blocked ((Cycle/Count))
system.cpu.dcache.writebacks::writebacks      1133461                       # number of writebacks (Count)
system.cpu.dcache.writebacks::total           1133461                       # number of writebacks (Count)
system.cpu.dcache.demandMshrHits::cpu.data       842221                       # number of demand (read+write) MSHR hits (Count)
system.cpu.dcache.demandMshrHits::total        842221                       # number of demand (read+write) MSHR hits (Count)
system.cpu.dcache.overallMshrHits::cpu.data       842221                       # number of overall MSHR hits (Count)
system.cpu.dcache.overallMshrHits::total       842221                       # number of overall MSHR hits (Count)
system.cpu.dcache.demandMshrMisses::cpu.data      1725509                       # number of demand (read+write) MSHR misses (Count)
system.cpu.dcache.demandMshrMisses::total      1725509                       # number of demand (read+write) MSHR misses (Count)
system.cpu.dcache.overallMshrMisses::cpu.data      1725509                       # number of overall MSHR misses (Count)
system.cpu.dcache.overallMshrMisses::total      1725509                       # number of overall MSHR misses (Count)
system.cpu.dcache.demandMshrMissLatency::cpu.data 140527278000                       # number of demand (read+write) MSHR miss ticks (Tick)
system.cpu.dcache.demandMshrMissLatency::total 140527278000                       # number of demand (read+write) MSHR miss ticks (Tick)
system.cpu.dcache.overallMshrMissLatency::cpu.data 140527278000                       # number of overall MSHR miss ticks (Tick)
system.cpu.dcache.overallMshrMissLatency::total 140527278000                       # number of overall MSHR miss ticks (Tick)
system.cpu.dcache.demandMshrMissRate::cpu.data     0.380929                       # mshr miss ratio for demand accesses (Ratio)
system.cpu.dcache.demandMshrMissRate::total     0.380929                       # mshr miss ratio for demand accesses (Ratio)
system.cpu.dcache.overallMshrMissRate::cpu.data     0.380929                       # mshr miss ratio for overall accesses (Ratio)
system.cpu.dcache.overallMshrMissRate::total     0.380929                       # mshr miss ratio for overall accesses (Ratio)
system.cpu.dcache.demandAvgMshrMissLatency::cpu.data 81441.057682                       # average overall mshr miss latency ((Tick/Count))
system.cpu.dcache.demandAvgMshrMissLatency::total 81441.057682                       # average overall mshr miss latency ((Tick/Count))
system.cpu.dcache.overallAvgMshrMissLatency::cpu.data 81441.057682                       # average overall mshr miss latency ((Tick/Count))
system.cpu.dcache.overallAvgMshrMissLatency::total 81441.057682                       # average overall mshr miss latency ((Tick/Count))
system.cpu.dcache.replacements                1725506                       # number of replacements (Count)
system.cpu.dcache.ReadReq.hits::cpu.data       828312                       # number of ReadReq hits (Count)
system.cpu.dcache.ReadReq.hits::total          828312                       # number of ReadReq hits (Count)
system.cpu.dcache.ReadReq.misses::cpu.data      2567728                       # number of ReadReq misses (Count)
system.cpu.dcache.ReadReq.misses::total       2567728                       # number of ReadReq misses (Count)
system.cpu.dcache.ReadReq.missLatency::cpu.data 173880371000                       # number of ReadReq miss ticks (Tick)
system.cpu.dcache.ReadReq.missLatency::total 173880371000                       # number of ReadReq miss ticks (Tick)
system.cpu.dcache.ReadReq.accesses::cpu.data      3396040                       # number of ReadReq accesses(hits+misses) (Count)
system.cpu.dcache.ReadReq.accesses::total      3396040                       # number of ReadReq accesses(hits+misses) (Count)
system.cpu.dcache.ReadReq.missRate::cpu.data     0.756095                       # miss rate for ReadReq accesses (Ratio)
system.cpu.dcache.ReadReq.missRate::total     0.756095                       # miss rate for ReadReq accesses (Ratio)
system.cpu.dcache.ReadReq.avgMissLatency::cpu.data 67717.597425                       # average ReadReq miss latency ((Tick/Count))
system.cpu.dcache.ReadReq.avgMissLatency::total 67717.597425                       # average ReadReq miss latency ((Tick/Count))
system.cpu.dcache.ReadReq.mshrHits::cpu.data       842219                       # number of ReadReq MSHR hits (Count)
system.cpu.dcache.ReadReq.mshrHits::total       842219                       # number of ReadReq MSHR hits (Count)
system.cpu.dcache.ReadReq.mshrMisses::cpu.data      1725509                       # number of ReadReq MSHR misses (Count)
system.cpu.dcache.ReadReq.mshrMisses::total      1725509                       # number of ReadReq MSHR misses (Count)
system.cpu.dcache.ReadReq.mshrMissLatency::cpu.data 140527278000                       # number of ReadReq MSHR miss ticks (Tick)
system.cpu.dcache.ReadReq.mshrMissLatency::total 140527278000                       # number of ReadReq MSHR miss ticks (Tick)
system.cpu.dcache.ReadReq.mshrMissRate::cpu.data     0.508094                       # mshr miss rate for ReadReq accesses (Ratio)
system.cpu.dcache.ReadReq.mshrMissRate::total     0.508094                       # mshr miss rate for ReadReq accesses (Ratio)
system.cpu.dcache.ReadReq.avgMshrMissLatency::cpu.data 81441.057682                       # average ReadReq mshr miss latency ((Tick/Count))
system.cpu.dcache.ReadReq.avgMshrMissLatency::total 81441.057682                       # average ReadReq mshr miss latency ((Tick/Count))
system.cpu.dcache.WriteReq.hits::cpu.data      1133700                       # number of WriteReq hits (Count)
system.cpu.dcache.WriteReq.hits::total        1133700                       # number of WriteReq hits (Count)
system.cpu.dcache.WriteReq.misses::cpu.data            2                       # number of WriteReq misses (Count)
system.cpu.dcache.WriteReq.misses::total            2                       # number of WriteReq misses (Count)
system.cpu.dcache.WriteReq.missLatency::cpu.data         6000                       # number of WriteReq miss ticks (Tick)
system.cpu.dcache.WriteReq.missLatency::total         6000                       # number of WriteReq miss ticks (Tick)
system.cpu.dcache.WriteReq.accesses::cpu.data      1133702                       # number of WriteReq accesses(hits+misses) (Count)
system.cpu.dcache.WriteReq.accesses::total      1133702                       # number of WriteReq accesses(hits+misses) (Count)
system.cpu.dcache.WriteReq.missRate::cpu.data     0.000002                       # miss rate for WriteReq accesses (Ratio)
system.cpu.dcache.WriteReq.missRate::total     0.000002                       # miss rate for WriteReq accesses (Ratio)
system.cpu.dcache.WriteReq.avgMissLatency::cpu.data         3000                       # average WriteReq miss latency ((Tick/Count))
system.cpu.dcache.WriteReq.avgMissLatency::total         3000                       # average WriteReq miss latency ((Tick/Count))
system.cpu.dcache.WriteReq.mshrHits::cpu.data            2                       # number of WriteReq MSHR hits (Count)
system.cpu.dcache.WriteReq.mshrHits::total            2                       # number of WriteReq MSHR hits (Count)
system.cpu.dcache.power_state.pwrStateResidencyTicks::UNDEFINED  36546567000                       # Cumulative time (in ticks) in various power states (Tick)
system.cpu.dcache.tags.tagsInUse                 1024                       # Average ticks per tags in use ((Tick/Count))
system.cpu.dcache.tags.totalRefs              3761014                       # Total number of references to valid blocks. (Count)
system.cpu.dcache.tags.sampledRefs            1725506                       # Sample count of references to valid blocks. (Count)
system.cpu.dcache.tags.avgRefs               2.179659                       # Average number of references to valid blocks. ((Count/Count))
system.cpu.dcache.tags.warmupTick                   0                       # The tick when the warmup percentage was hit. (Tick)
system.cpu.dcache.tags.occupancies::cpu.data         1024                       # Average occupied blocks per tick, per requestor ((Count/Tick))
system.cpu.dcache.tags.avgOccs::cpu.data            1                       # Average percentage of cache occupancy ((Ratio/Tick))
system.cpu.dcache.tags.avgOccs::total               1                       # Average percentage of cache occupancy ((Ratio/Tick))
system.cpu.dcache.tags.occupanciesTaskId::1024         1024                       # Occupied blocks per task id (Count)
system.cpu.dcache.tags.ageTaskId_1024::0          474                       # Occupied blocks per task id, per block age (Count)
system.cpu.dcache.tags.ageTaskId_1024::1          550                       # Occupied blocks per task id, per block age (Count)
system.cpu.dcache.tags.ratioOccsTaskId::1024            1                       # Ratio of occupied blocks and all blocks, per task id (Ratio)
system.cpu.dcache.tags.tagAccesses           19844474                       # Number of tag accesses (Count)
system.cpu.dcache.tags.dataAccesses          19844474                       # Number of data accesses (Count)
system.cpu.dcache.tags.power_state.pwrStateResidencyTicks::UNDEFINED  36546567000                       # Cumulative time (in ticks) in various power states (Tick)
system.cpu.decode.idleCycles                   767463                       # Number of cycles decode is idle (Cycle)
system.cpu.decode.blockedCycles              67771681                       # Number of cycles decode is blocked (Cycle)
system.cpu.decode.runCycles                    749131                       # Number of cycles decode is running (Cycle)
system.cpu.decode.unblockCycles               1797146                       # Number of cycles decode is unblocking (Cycle)
system.cpu.decode.squashCycles                  24628                       # Number of cycles decode is squashing (Cycle)
system.cpu.decode.branchResolved              1167656                       # Number of times decode resolved a branch (Count)
system.cpu.decode.branchMispred                     2                       # Number of times decode detected a branch misprediction (Count)
system.cpu.decode.decodedInsts               19991192                       # Number of instructions handled by decode (Count)
system.cpu.fetch.icacheStallCycles            2073212                       # Number of cycles fetch is stalled on an Icache miss (Cycle)
system.cpu.fetch.insts                       17178008                       # Number of instructions fetch has processed (Count)
system.cpu.fetch.branches                     1241262                       # Number of branches that fetch encountered (Count)
system.cpu.fetch.predictedBranches            1217202                       # Number of branches that fetch has predicted taken (Count)
system.cpu.fetch.cycles                      69012207                       # Number of cycles fetch has run and was not squashing or blocked (Cycle)
system.cpu.fetch.squashCycles                   49260                       # Number of cycles fetch has spent squashing (Cycle)
system.cpu.fetch.cacheLines                   2061546                       # Number of cache lines fetched (Count)
system.cpu.fetch.icacheSquashes                  4974                       # Number of outstanding Icache misses that were squashed (Count)
system.cpu.fetch.nisnDist::samples           71110049                       # Number of instructions fetched each cycle (Total) (Count)
system.cpu.fetch.nisnDist::mean              0.292458                       # Number of instructions fetched each cycle (Total) (Count)
system.cpu.fetch.nisnDist::stdev             1.322482                       # Number of instructions fetched each cycle (Total) (Count)
system.cpu.fetch.nisnDist::underflows               0      0.00%      0.00% # Number of instructions fetched each cycle (Total) (Count)
system.cpu.fetch.nisnDist::0                 67088837     94.35%     94.35% # Number of instructions fetched each cycle (Total) (Count)
system.cpu.fetch.nisnDist::1                   310410      0.44%     94.78% # Number of instructions fetched each cycle (Total) (Count)
system.cpu.fetch.nisnDist::2                   295954      0.42%     95.20% # Number of instructions fetched each cycle (Total) (Count)
system.cpu.fetch.nisnDist::3                   817330      1.15%     96.35% # Number of instructions fetched each cycle (Total) (Count)
system.cpu.fetch.nisnDist::4                   196232      0.28%     96.62% # Number of instructions fetched each cycle (Total) (Count)
system.cpu.fetch.nisnDist::5                   220885      0.31%     96.93% # Number of instructions fetched each cycle (Total) (Count)
system.cpu.fetch.nisnDist::6                   872698      1.23%     98.16% # Number of instructions fetched each cycle (Total) (Count)
system.cpu.fetch.nisnDist::7                   144763      0.20%     98.36% # Number of instructions fetched each cycle (Total) (Count)
system.cpu.fetch.nisnDist::8                  1162940      1.64%    100.00% # Number of instructions fetched each cycle (Total) (Count)
system.cpu.fetch.nisnDist::overflows                0      0.00%    100.00% # Number of instructions fetched each cycle (Total) (Count)
system.cpu.fetch.nisnDist::min_value                0                       # Number of instructions fetched each cycle (Total) (Count)
system.cpu.fetch.nisnDist::max_value                8                       # Number of instructions fetched each cycle (Total) (Count)
system.cpu.fetch.nisnDist::total             71110049                       # Number of instructions fetched each cycle (Total) (Count)
system.cpu.fetch.branchRate                  0.017454                       # Number of branch fetches per cycle (Ratio)
system.cpu.fetch.rate                        0.241549                       # Number of inst fetches per cycle ((Count/Cycle))
system.cpu.icache.demandHits::cpu.inst        2061489                       # number of demand (read+write) hits (Count)
system.cpu.icache.demandHits::total           2061489                       # number of demand (read+write) hits (Count)
system.cpu.icache.overallHits::cpu.inst       2061489                       # number of overall hits (Count)
system.cpu.icache.overallHits::total          2061489                       # number of overall hits (Count)
system.cpu.icache.demandMisses::cpu.inst           57                       # number of demand (read+write) misses (Count)
system.cpu.icache.demandMisses::total              57                       # number of demand (read+write) misses (Count)
system.cpu.icache.overallMisses::cpu.inst           57                       # number of overall misses (Count)
system.cpu.icache.overallMisses::total             57                       # number of overall misses (Count)
system.cpu.icache.demandMissLatency::cpu.inst      5098500                       # number of demand (read+write) miss ticks (Tick)
system.cpu.icache.demandMissLatency::total      5098500                       # number of demand (read+write) miss ticks (Tick)
system.cpu.icache.overallMissLatency::cpu.inst      5098500                       # number of overall miss ticks (Tick)
system.cpu.icache.overallMissLatency::total      5098500                       # number of overall miss ticks (Tick)
system.cpu.icache.demandAccesses::cpu.inst      2061546                       # number of demand (read+write) accesses (Count)
system.cpu.icache.demandAccesses::total       2061546                       # number of demand (read+write) accesses (Count)
system.cpu.icache.overallAccesses::cpu.inst      2061546                       # number of overall (read+write) accesses (Count)
system.cpu.icache.overallAccesses::total      2061546                       # number of overall (read+write) accesses (Count)
system.cpu.icache.demandMissRate::cpu.inst     0.000028                       # miss rate for demand accesses (Ratio)
system.cpu.icache.demandMissRate::total      0.000028                       # miss rate for demand accesses (Ratio)
system.cpu.icache.overallMissRate::cpu.inst     0.000028                       # miss rate for overall accesses (Ratio)
system.cpu.icache.overallMissRate::total     0.000028                       # miss rate for overall accesses (Ratio)
system.cpu.icache.demandAvgMissLatency::cpu.inst 89447.368421                       # average overall miss latency in ticks ((Tick/Count))
system.cpu.icache.demandAvgMissLatency::total 89447.368421                       # average overall miss latency in ticks ((Tick/Count))
system.cpu.icache.overallAvgMissLatency::cpu.inst 89447.368421                       # average overall miss latency ((Tick/Count))
system.cpu.icache.overallAvgMissLatency::total 89447.368421                       # average overall miss latency ((Tick/Count))
system.cpu.icache.blockedCycles::no_mshrs            0                       # number of cycles access was blocked (Cycle)
system.cpu.icache.blockedCycles::no_targets            0                       # number of cycles access was blocked (Cycle)
system.cpu.icache.blockedCauses::no_mshrs            0                       # number of times access was blocked (Count)
system.cpu.icache.blockedCauses::no_targets            0                       # number of times access was blocked (Count)
system.cpu.icache.avgBlocked::no_mshrs            nan                       # average number of cycles each access was blocked ((Cycle/Count))
system.cpu.icache.avgBlocked::no_targets          nan                       # average number of cycles each access was blocked ((Cycle/Count))
system.cpu.icache.writebacks::writebacks           55                       # number of writebacks (Count)
system.cpu.icache.writebacks::total                55                       # number of writebacks (Count)
system.cpu.icache.demandMshrHits::cpu.inst            3                       # number of demand (read+write) MSHR hits (Count)
system.cpu.icache.demandMshrHits::total             3                       # number of demand (read+write) MSHR hits (Count)
system.cpu.icache.overallMshrHits::cpu.inst            3                       # number of overall MSHR hits (Count)
system.cpu.icache.overallMshrHits::total            3                       # number of overall MSHR hits (Count)
system.cpu.icache.demandMshrMisses::cpu.inst           54                       # number of demand (read+write) MSHR misses (Count)
system.cpu.icache.demandMshrMisses::total           54                       # number of demand (read+write) MSHR misses (Count)
system.cpu.icache.overallMshrMisses::cpu.inst           54                       # number of overall MSHR misses (Count)
system.cpu.icache.overallMshrMisses::total           54                       # number of overall MSHR misses (Count)
system.cpu.icache.demandMshrMissLatency::cpu.inst      4835500                       # number of demand (read+write) MSHR miss ticks (Tick)
system.cpu.icache.demandMshrMissLatency::total      4835500                       # number of demand (read+write) MSHR miss ticks (Tick)
system.cpu.icache.overallMshrMissLatency::cpu.inst      4835500                       # number of overall MSHR miss ticks (Tick)
system.cpu.icache.overallMshrMissLatency::total      4835500                       # number of overall MSHR miss ticks (Tick)
system.cpu.icache.demandMshrMissRate::cpu.inst     0.000026                       # mshr miss ratio for demand accesses (Ratio)
system.cpu.icache.demandMshrMissRate::total     0.000026                       # mshr miss ratio for demand accesses (Ratio)
system.cpu.icache.overallMshrMissRate::cpu.inst     0.000026                       # mshr miss ratio for overall accesses (Ratio)
system.cpu.icache.overallMshrMissRate::total     0.000026                       # mshr miss ratio for overall accesses (Ratio)
system.cpu.icache.demandAvgMshrMissLatency::cpu.inst 89546.296296                       # average overall mshr miss latency ((Tick/Count))
system.cpu.icache.demandAvgMshrMissLatency::total 89546.296296                       # average overall mshr miss latency ((Tick/Count))
system.cpu.icache.overallAvgMshrMissLatency::cpu.inst 89546.296296                       # average overall mshr miss latency ((Tick/Count))
system.cpu.icache.overallAvgMshrMissLatency::total 89546.296296                       # average overall mshr miss latency ((Tick/Count))
system.cpu.icache.replacements                     55                       # number of replacements (Count)
system.cpu.icache.ReadReq.hits::cpu.inst      2061489                       # number of ReadReq hits (Count)
system.cpu.icache.ReadReq.hits::total         2061489                       # number of ReadReq hits (Count)
system.cpu.icache.ReadReq.misses::cpu.inst           57                       # number of ReadReq misses (Count)
system.cpu.icache.ReadReq.misses::total            57                       # number of ReadReq misses (Count)
system.cpu.icache.ReadReq.missLatency::cpu.inst      5098500                       # number of ReadReq miss ticks (Tick)
system.cpu.icache.ReadReq.missLatency::total      5098500                       # number of ReadReq miss ticks (Tick)
system.cpu.icache.ReadReq.accesses::cpu.inst      2061546                       # number of ReadReq accesses(hits+misses) (Count)
system.cpu.icache.ReadReq.accesses::total      2061546                       # number of ReadReq accesses(hits+misses) (Count)
system.cpu.icache.ReadReq.missRate::cpu.inst     0.000028                       # miss rate for ReadReq accesses (Ratio)
system.cpu.icache.ReadReq.missRate::total     0.000028                       # miss rate for ReadReq accesses (Ratio)
system.cpu.icache.ReadReq.avgMissLatency::cpu.inst 89447.368421                       # average ReadReq miss latency ((Tick/Count))
system.cpu.icache.ReadReq.avgMissLatency::total 89447.368421                       # average ReadReq miss latency ((Tick/Count))
system.cpu.icache.ReadReq.mshrHits::cpu.inst            3                       # number of ReadReq MSHR hits (Count)
system.cpu.icache.ReadReq.mshrHits::total            3                       # number of ReadReq MSHR hits (Count)
system.cpu.icache.ReadReq.mshrMisses::cpu.inst           54                       # number of ReadReq MSHR misses (Count)
system.cpu.icache.ReadReq.mshrMisses::total           54                       # number of ReadReq MSHR misses (Count)
system.cpu.icache.ReadReq.mshrMissLatency::cpu.inst      4835500                       # number of ReadReq MSHR miss ticks (Tick)
system.cpu.icache.ReadReq.mshrMissLatency::total      4835500                       # number of ReadReq MSHR miss ticks (Tick)
system.cpu.icache.ReadReq.mshrMissRate::cpu.inst     0.000026                       # mshr miss rate for ReadReq accesses (Ratio)
system.cpu.icache.ReadReq.mshrMissRate::total     0.000026                       # mshr miss rate for ReadReq accesses (Ratio)
system.cpu.icache.ReadReq.avgMshrMissLatency::cpu.inst 89546.296296                       # average ReadReq mshr miss latency ((Tick/Count))
system.cpu.icache.ReadReq.avgMshrMissLatency::total 89546.296296                       # average ReadReq mshr miss latency ((Tick/Count))
system.cpu.icache.power_state.pwrStateResidencyTicks::UNDEFINED  36546567000                       # Cumulative time (in ticks) in various power states (Tick)
system.cpu.icache.tags.tagsInUse                  256                       # Average ticks per tags in use ((Tick/Count))
system.cpu.icache.tags.totalRefs                 8466                       # Total number of references to valid blocks. (Count)
system.cpu.icache.tags.sampledRefs                 55                       # Sample count of references to valid blocks. (Count)
system.cpu.icache.tags.avgRefs             153.927273                       # Average number of references to valid blocks. ((Count/Count))
system.cpu.icache.tags.warmupTick                   0                       # The tick when the warmup percentage was hit. (Tick)
system.cpu.icache.tags.occupancies::cpu.inst          256                       # Average occupied blocks per tick, per requestor ((Count/Tick))
system.cpu.icache.tags.avgOccs::cpu.inst            1                       # Average percentage of cache occupancy ((Ratio/Tick))
system.cpu.icache.tags.avgOccs::total               1                       # Average percentage of cache occupancy ((Ratio/Tick))
system.cpu.icache.tags.occupanciesTaskId::1024          256                       # Occupied blocks per task id (Count)
system.cpu.icache.tags.ageTaskId_1024::4          256                       # Occupied blocks per task id, per block age (Count)
system.cpu.icache.tags.ratioOccsTaskId::1024            1                       # Ratio of occupied blocks and all blocks, per task id (Ratio)
system.cpu.icache.tags.tagAccesses            8246239                       # Number of tag accesses (Count)
system.cpu.icache.tags.dataAccesses           8246239                       # Number of data accesses (Count)
system.cpu.icache.tags.power_state.pwrStateResidencyTicks::UNDEFINED  36546567000                       # Cumulative time (in ticks) in various power states (Tick)
system.cpu.iew.idleCycles                           0                       # Number of cycles IEW is idle (Cycle)
system.cpu.iew.squashCycles                     24628                       # Number of cycles IEW is squashing (Cycle)
system.cpu.iew.blockCycles                   56805498                       # Number of cycles IEW is blocking (Cycle)
system.cpu.iew.unblockCycles                   934572                       # Number of cycles IEW is unblocking (Cycle)
system.cpu.iew.dispatchedInsts               19745638                       # Number of instructions dispatched to IQ (Count)
system.cpu.iew.dispSquashedInsts                 6696                       # Number of squashed instructions skipped by dispatch (Count)
system.cpu.iew.dispLoadInsts                  3441408                       # Number of dispatched load instructions (Count)
system.cpu.iew.dispStoreInsts                 1138066                       # Number of dispatched store instructions (Count)
system.cpu.iew.dispNonSpecInsts                     2                       # Number of dispatched non-speculative instructions (Count)
system.cpu.iew.iqFullEvents                    478638                       # Number of times the IQ has become full, causing a stall (Count)
system.cpu.iew.lsqFullEvents                      650                       # Number of times the LSQ has become full, causing a stall (Count)
system.cpu.iew.memOrderViolationEvents             52                       # Number of memory order violations (Count)
system.cpu.iew.predictedTakenIncorrect          24423                       # Number of branches that were predicted taken incorrectly (Count)
system.cpu.iew.predictedNotTakenIncorrect           38                       # Number of branches that were predicted not taken incorrectly (Count)
system.cpu.iew.branchMispredicts                24461                       # Number of branch mispredicts detected at execute (Count)
system.cpu.iew.instsToCommit                 19574208                       # Cumulative count of insts sent to commit (Count)
system.cpu.iew.writebackCount                19573280                       # Cumulative count of insts written-back (Count)
system.cpu.iew.producerInst                  14626805                       # Number of instructions producing a value (Count)
system.cpu.iew.consumerInst                  18779941                       # Number of instructions consuming a value (Count)
system.cpu.iew.wbRate                        0.275231                       # Insts written-back per cycle ((Count/Cycle))
system.cpu.iew.wbFanout                      0.778853                       # Average fanout of values written-back ((Count/Count))
system.cpu.lsq0.forwLoads                         118                       # Number of loads that had data forwarded from stores (Count)
system.cpu.lsq0.squashedLoads                   48047                       # Number of loads squashed (Count)
system.cpu.lsq0.ignoredResponses                    0                       # Number of memory responses ignored because the instruction is squashed (Count)
system.cpu.lsq0.memOrderViolation                  52                       # Number of memory ordering violations (Count)
system.cpu.lsq0.squashedStores                   4339                       # Number of stores squashed (Count)
system.cpu.lsq0.rescheduledLoads                   15                       # Number of loads that were rescheduled (Count)
system.cpu.lsq0.blockedByCache                1724060                       # Number of times an access to memory failed due to the cache being blocked (Count)
system.cpu.lsq0.loadToUse::samples            3393332                       # Distribution of cycle latency between the first time a load is issued and its completion (Unspecified)
system.cpu.lsq0.loadToUse::mean            307.195048                       # Distribution of cycle latency between the first time a load is issued and its completion (Unspecified)
system.cpu.lsq0.loadToUse::stdev           149.062195                       # Distribution of cycle latency between the first time a load is issued and its completion (Unspecified)
system.cpu.lsq0.loadToUse::0-9                    869      0.03%      0.03% # Distribution of cycle latency between the first time a load is issued and its completion (Unspecified)
system.cpu.lsq0.loadToUse::10-19                  259      0.01%      0.03% # Distribution of cycle latency between the first time a load is issued and its completion (Unspecified)
system.cpu.lsq0.loadToUse::20-29                20121      0.59%      0.63% # Distribution of cycle latency between the first time a load is issued and its completion (Unspecified)
system.cpu.lsq0.loadToUse::30-39                 1509      0.04%      0.67% # Distribution of cycle latency between the first time a load is issued and its completion (Unspecified)
system.cpu.lsq0.loadToUse::40-49                 2789      0.08%      0.75% # Distribution of cycle latency between the first time a load is issued and its completion (Unspecified)
system.cpu.lsq0.loadToUse::50-59                 2124      0.06%      0.82% # Distribution of cycle latency between the first time a load is issued and its completion (Unspecified)
system.cpu.lsq0.loadToUse::60-69                 1831      0.05%      0.87% # Distribution of cycle latency between the first time a load is issued and its completion (Unspecified)
system.cpu.lsq0.loadToUse::70-79                 3365      0.10%      0.97% # Distribution of cycle latency between the first time a load is issued and its completion (Unspecified)
system.cpu.lsq0.loadToUse::80-89                 2454      0.07%      1.04% # Distribution of cycle latency between the first time a load is issued and its completion (Unspecified)
system.cpu.lsq0.loadToUse::90-99                 4349      0.13%      1.17% # Distribution of cycle latency between the first time a load is issued and its completion (Unspecified)
system.cpu.lsq0.loadToUse::100-109               4492      0.13%      1.30% # Distribution of cycle latency between the first time a load is issued and its completion (Unspecified)
system.cpu.lsq0.loadToUse::110-119               5263      0.16%      1.46% # Distribution of cycle latency between the first time a load is issued and its completion (Unspecified)
system.cpu.lsq0.loadToUse::120-129               6430      0.19%      1.65% # Distribution of cycle latency between the first time a load is issued and its completion (Unspecified)
system.cpu.lsq0.loadToUse::130-139              35633      1.05%      2.70% # Distribution of cycle latency between the first time a load is issued and its completion (Unspecified)
system.cpu.lsq0.loadToUse::140-149              85062      2.51%      5.20% # Distribution of cycle latency between the first time a load is issued and its completion (Unspecified)
system.cpu.lsq0.loadToUse::150-159             141744      4.18%      9.38% # Distribution of cycle latency between the first time a load is issued and its completion (Unspecified)
system.cpu.lsq0.loadToUse::160-169             283910      8.37%     17.75% # Distribution of cycle latency between the first time a load is issued and its completion (Unspecified)
system.cpu.lsq0.loadToUse::170-179             186697      5.50%     23.25% # Distribution of cycle latency between the first time a load is issued and its completion (Unspecified)
system.cpu.lsq0.loadToUse::180-189             126377      3.72%     26.97% # Distribution of cycle latency between the first time a load is issued and its completion (Unspecified)
system.cpu.lsq0.loadToUse::190-199              97958      2.89%     29.86% # Distribution of cycle latency between the first time a load is issued and its completion (Unspecified)
system.cpu.lsq0.loadToUse::200-209              86379      2.55%     32.41% # Distribution of cycle latency between the first time a load is issued and its completion (Unspecified)
system.cpu.lsq0.loadToUse::210-219              86668      2.55%     34.96% # Distribution of cycle latency between the first time a load is issued and its completion (Unspecified)
system.cpu.lsq0.loadToUse::220-229              80610      2.38%     37.33% # Distribution of cycle latency between the first time a load is issued and its completion (Unspecified)
system.cpu.lsq0.loadToUse::230-239              72327      2.13%     39.47% # Distribution of cycle latency between the first time a load is issued and its completion (Unspecified)
system.cpu.lsq0.loadToUse::240-249              74857      2.21%     41.67% # Distribution of cycle latency between the first time a load is issued and its completion (Unspecified)
system.cpu.lsq0.loadToUse::250-259              60554      1.78%     43.46% # Distribution of cycle latency between the first time a load is issued and its completion (Unspecified)
system.cpu.lsq0.loadToUse::260-269              56057      1.65%     45.11% # Distribution of cycle latency between the first time a load is issued and its completion (Unspecified)
system.cpu.lsq0.loadToUse::270-279              90279      2.66%     47.77% # Distribution of cycle latency between the first time a load is issued and its completion (Unspecified)
system.cpu.lsq0.loadToUse::280-289             133381      3.93%     51.70% # Distribution of cycle latency between the first time a load is issued and its completion (Unspecified)
system.cpu.lsq0.loadToUse::290-299             109772      3.23%     54.93% # Distribution of cycle latency between the first time a load is issued and its completion (Unspecified)
system.cpu.lsq0.loadToUse::overflows          1529212     45.07%    100.00% # Distribution of cycle latency between the first time a load is issued and its completion (Unspecified)
system.cpu.lsq0.loadToUse::min_value                2                       # Distribution of cycle latency between the first time a load is issued and its completion (Unspecified)
system.cpu.lsq0.loadToUse::max_value             1425                       # Distribution of cycle latency between the first time a load is issued and its completion (Unspecified)
system.cpu.lsq0.loadToUse::total              3393332                       # Distribution of cycle latency between the first time a load is issued and its completion (Unspecified)
system.cpu.mmu.alignFaults                          0                       # Number of MMU faults due to alignment restrictions (Count)
system.cpu.mmu.prefetchFaults                       0                       # Number of MMU faults due to prefetch (Count)
system.cpu.mmu.domainFaults                         0                       # Number of MMU faults due to domain restrictions (Count)
system.cpu.mmu.permsFaults                          0                       # Number of MMU faults due to permissions restrictions (Count)
system.cpu.mmu.dtb.readHits                         0                       # Read hits (Count)
system.cpu.mmu.dtb.readMisses                       0                       # Read misses (Count)
system.cpu.mmu.dtb.writeHits                        0                       # Write hits (Count)
system.cpu.mmu.dtb.writeMisses                      0                       # Write misses (Count)
system.cpu.mmu.dtb.inserts                          0                       # Number of times an entry is inserted into the TLB (Count)
system.cpu.mmu.dtb.flushTlb                         0                       # Number of times a TLB invalidation was requested (Count)
system.cpu.mmu.dtb.flushedEntries                   0                       # Number of entries that have been flushed from TLB (Count)
system.cpu.mmu.dtb.readAccesses                     0                       # Read accesses (Count)
system.cpu.mmu.dtb.writeAccesses                    0                       # Write accesses (Count)
system.cpu.mmu.dtb.hits                             0                       # Total TLB (inst and data) hits (Count)
system.cpu.mmu.dtb.misses                           0                       # Total TLB (inst and data) misses (Count)
system.cpu.mmu.dtb.accesses                         0                       # Total TLB (inst and data) accesses (Count)
system.cpu.mmu.dtb_walker.walks                     0                       # Table walker walks requested (Count)
[...]
system.mem_ctrls.dram.perBankWrBursts::9           25                       # Per bank write bursts (Count)
system.mem_ctrls.dram.perBankWrBursts::10           31                       # Per bank write bursts (Count)
system.mem_ctrls.dram.perBankWrBursts::11           36                       # Per bank write bursts (Count)
system.mem_ctrls.dram.perBankWrBursts::12           20                       # Per bank write bursts (Count)
system.mem_ctrls.dram.perBankWrBursts::13           59                       # Per bank write bursts (Count)
system.mem_ctrls.dram.perBankWrBursts::14           41                       # Per bank write bursts (Count)
system.mem_ctrls.dram.perBankWrBursts::15           48                       # Per bank write bursts (Count)
system.mem_ctrls.dram.totQLat                15128750                       # Total ticks spent queuing (Tick)
system.mem_ctrls.dram.totBusLat               2690000                       # Total ticks spent in databus transfers (Tick)
system.mem_ctrls.dram.totMemAccLat           25216250                       # Total ticks spent from burst creation until serviced by the DRAM (Tick)
system.mem_ctrls.dram.avgQLat                28120.35                       # Average queueing delay per DRAM burst ((Tick/Count))
system.mem_ctrls.dram.avgBusLat               5000.00                       # Average bus latency per DRAM burst ((Tick/Count))
system.mem_ctrls.dram.avgMemAccLat           46870.35                       # Average memory access latency per DRAM burst ((Tick/Count))
system.mem_ctrls.dram.readRowHits                 300                       # Number of row buffer hits during reads (Count)
system.mem_ctrls.dram.writeRowHits                335                       # Number of row buffer hits during writes (Count)
system.mem_ctrls.dram.readRowHitRate            55.76                       # Row buffer hit rate for reads (Ratio)
system.mem_ctrls.dram.writeRowHitRate           57.36                       # Row buffer hit rate for writes (Ratio)
system.mem_ctrls.dram.bytesPerActivate::samples          492                       # Bytes accessed per row activation (Byte)
system.mem_ctrls.dram.bytesPerActivate::mean   152.975610                       # Bytes accessed per row activation (Byte)
system.mem_ctrls.dram.bytesPerActivate::gmean   118.729244                       # Bytes accessed per row activation (Byte)
system.mem_ctrls.dram.bytesPerActivate::stdev   133.208041                       # Bytes accessed per row activation (Byte)
system.mem_ctrls.dram.bytesPerActivate::0-127          225     45.73%     45.73% # Bytes accessed per row activation (Byte)
system.mem_ctrls.dram.bytesPerActivate::128-255          175     35.57%     81.30% # Bytes accessed per row activation (Byte)
system.mem_ctrls.dram.bytesPerActivate::256-383           61     12.40%     93.70% # Bytes accessed per row activation (Byte)
system.mem_ctrls.dram.bytesPerActivate::384-511           13      2.64%     96.34% # Bytes accessed per row activation (Byte)
system.mem_ctrls.dram.bytesPerActivate::512-639            8      1.63%     97.97% # Bytes accessed per row activation (Byte)
system.mem_ctrls.dram.bytesPerActivate::640-767            5      1.02%     98.98% # Bytes accessed per row activation (Byte)
system.mem_ctrls.dram.bytesPerActivate::768-895            4      0.81%     99.80% # Bytes accessed per row activation (Byte)
system.mem_ctrls.dram.bytesPerActivate::1024-1151            1      0.20%    100.00% # Bytes accessed per row activation (Byte)
system.mem_ctrls.dram.bytesPerActivate::total          492                       # Bytes accessed per row activation (Byte)
system.mem_ctrls.dram.bytesRead                 34432                       # Total bytes read (Byte)
system.mem_ctrls.dram.bytesWritten              37376                       # Total bytes written (Byte)
system.mem_ctrls.dram.avgRdBW             1166.830459                       # Average DRAM read bandwidth in MiBytes/s ((Byte/Second))
system.mem_ctrls.dram.avgWrBW             1266.596632                       # Average DRAM write bandwidth in MiBytes/s ((Byte/Second))
system.mem_ctrls.dram.peakBW                 12800.00                       # Theoretical peak bandwidth in MiByte/s ((Byte/Second))
system.mem_ctrls.dram.busUtil                   19.01                       # Data bus utilization in percentage (Ratio)
system.mem_ctrls.dram.busUtilRead                9.12                       # Data bus utilization in percentage for reads (Ratio)
system.mem_ctrls.dram.busUtilWrite               9.90                       # Data bus utilization in percentage for writes (Ratio)
system.mem_ctrls.dram.pageHitRate               56.60                       # Row buffer hit rate, read and write combined (Ratio)
system.mem_ctrls.dram.power_state.pwrStateResidencyTicks::UNDEFINED     29509000                       # Cumulative time (in ticks) in various power states (Tick)
system.mem_ctrls.dram.rank0.actEnergy         1785000                       # Energy for activate commands per rank (pJ) (Joule)
system.mem_ctrls.dram.rank0.preEnergy          960135                       # Energy for precharge commands per rank (pJ) (Joule)
system.mem_ctrls.dram.rank0.readEnergy        2149140                       # Energy for read commands per rank (pJ) (Joule)
system.mem_ctrls.dram.rank0.writeEnergy       1388520                       # Energy for write commands per rank (pJ) (Joule)
system.mem_ctrls.dram.rank0.refreshEnergy 2458560.000000                       # Energy for refresh commands per rank (pJ) (Joule)
system.mem_ctrls.dram.rank0.actBackEnergy     13405830                       # Energy for active background per rank (pJ) (Joule)
system.mem_ctrls.dram.rank0.preBackEnergy        42240                       # Energy for precharge background per rank (pJ) (Joule)
system.mem_ctrls.dram.rank0.actPowerDownEnergy            0                       # Energy for active power-down per rank (pJ) (Joule)
system.mem_ctrls.dram.rank0.prePowerDownEnergy            0                       # Energy for precharge power-down per rank (pJ) (Joule)
system.mem_ctrls.dram.rank0.selfRefreshEnergy            0                       # Energy for self refresh per rank (pJ) (Joule)
system.mem_ctrls.dram.rank0.totalEnergy      22189425                       # Total energy per rank (pJ) (Joule)
system.mem_ctrls.dram.rank0.averagePower   751.954488                       # Core power per rank (mW) (Watt)
system.mem_ctrls.dram.rank0.totalIdleTime            0                       # Total Idle time Per DRAM Rank (Tick)
system.mem_ctrls.dram.rank0.pwrStateTime::IDLE            0                       # Time in different power states (Tick)
system.mem_ctrls.dram.rank0.pwrStateTime::REF      1040000                       # Time in different power states (Tick)
system.mem_ctrls.dram.rank0.pwrStateTime::SREF            0                       # Time in different power states (Tick)
system.mem_ctrls.dram.rank0.pwrStateTime::PRE_PDN            0                       # Time in different power states (Tick)
system.mem_ctrls.dram.rank0.pwrStateTime::ACT     28469000                       # Time in different power states (Tick)
system.mem_ctrls.dram.rank0.pwrStateTime::ACT_PDN            0                       # Time in different power states (Tick)
system.mem_ctrls.dram.rank1.actEnergy         1692180                       # Energy for activate commands per rank (pJ) (Joule)
system.mem_ctrls.dram.rank1.preEnergy          907005                       # Energy for precharge commands per rank (pJ) (Joule)
system.mem_ctrls.dram.rank1.readEnergy        1699320                       # Energy for read commands per rank (pJ) (Joule)
system.mem_ctrls.dram.rank1.writeEnergy       1659960                       # Energy for write commands per rank (pJ) (Joule)
system.mem_ctrls.dram.rank1.refreshEnergy 2458560.000000                       # Energy for refresh commands per rank (pJ) (Joule)
system.mem_ctrls.dram.rank1.actBackEnergy     12936150                       # Energy for active background per rank (pJ) (Joule)
system.mem_ctrls.dram.rank1.preBackEnergy       437760                       # Energy for precharge background per rank (pJ) (Joule)
system.mem_ctrls.dram.rank1.actPowerDownEnergy            0                       # Energy for active power-down per rank (pJ) (Joule)
system.mem_ctrls.dram.rank1.prePowerDownEnergy            0                       # Energy for precharge power-down per rank (pJ) (Joule)
system.mem_ctrls.dram.rank1.selfRefreshEnergy            0                       # Energy for self refresh per rank (pJ) (Joule)
system.mem_ctrls.dram.rank1.totalEnergy      21790935                       # Total energy per rank (pJ) (Joule)
system.mem_ctrls.dram.rank1.averagePower   738.450473                       # Core power per rank (mW) (Watt)
system.mem_ctrls.dram.rank1.totalIdleTime            0                       # Total Idle time Per DRAM Rank (Tick)
system.mem_ctrls.dram.rank1.pwrStateTime::IDLE      1027500                       # Time in different power states (Tick)
system.mem_ctrls.dram.rank1.pwrStateTime::REF      1040000                       # Time in different power states (Tick)
system.mem_ctrls.dram.rank1.pwrStateTime::SREF            0                       # Time in different power states (Tick)
system.mem_ctrls.dram.rank1.pwrStateTime::PRE_PDN            0                       # Time in different power states (Tick)
system.mem_ctrls.dram.rank1.pwrStateTime::ACT     27441500                       # Time in different power states (Tick)
system.mem_ctrls.dram.rank1.pwrStateTime::ACT_PDN            0                       # Time in different power states (Tick)
system.mem_ctrls.power_state.pwrStateResidencyTicks::UNDEFINED     29509000                       # Cumulative time (in ticks) in various power states (Tick)
system.membus.transDist::ReadResp                 517                       # Transaction distribution (Count)
system.membus.transDist::WritebackDirty           579                       # Transaction distribution (Count)
system.membus.transDist::CleanEvict               131                       # Transaction distribution (Count)
system.membus.transDist::ReadExReq                 24                       # Transaction distribution (Count)
system.membus.transDist::ReadExResp                24                       # Transaction distribution (Count)
system.membus.transDist::ReadSharedReq            514                       # Transaction distribution (Count)
system.membus.transDist::InvalidateReq              3                       # Transaction distribution (Count)
system.membus.pktCount_system.l2.mem_side_port::system.mem_ctrls.port         1792                       # Packet count per connected requestor and responder (Count)
system.membus.pktCount::total                    1792                       # Packet count per connected requestor and responder (Count)
system.membus.pktSize_system.l2.mem_side_port::system.mem_ctrls.port        71680                       # Cumulative packet size per connected requestor and responder (Byte)
system.membus.pktSize::total                    71680                       # Cumulative packet size per connected requestor and responder (Byte)
system.membus.snoops                                0                       # Total snoops (Count)
system.membus.snoopTraffic                          0                       # Total snoop traffic (Byte)
system.membus.snoopFanout::samples                541                       # Request fanout histogram (Count)
system.membus.snoopFanout::mean                     0                       # Request fanout histogram (Count)
system.membus.snoopFanout::stdev                    0                       # Request fanout histogram (Count)
system.membus.snoopFanout::underflows               0      0.00%      0.00% # Request fanout histogram (Count)
system.membus.snoopFanout::0                      541    100.00%    100.00% # Request fanout histogram (Count)
system.membus.snoopFanout::1                        0      0.00%    100.00% # Request fanout histogram (Count)
system.membus.snoopFanout::overflows                0      0.00%    100.00% # Request fanout histogram (Count)
system.membus.snoopFanout::min_value                0                       # Request fanout histogram (Count)
system.membus.snoopFanout::max_value                0                       # Request fanout histogram (Count)
system.membus.snoopFanout::total                  541                       # Request fanout histogram (Count)
system.membus.power_state.pwrStateResidencyTicks::UNDEFINED     29509000                       # Cumulative time (in ticks) in various power states (Tick)
system.membus.reqLayer0.occupancy             3694500                       # Layer occupancy (ticks) (Tick)
system.membus.reqLayer0.utilization               0.1                       # Layer utilization (Ratio)
system.membus.respLayer1.occupancy            2905500                       # Layer occupancy (ticks) (Tick)
system.membus.respLayer1.utilization              0.1                       # Layer utilization (Ratio)
system.membus.snoop_filter.totRequests           1251                       # Total number of requests made to the snoop filter. (Count)
system.membus.snoop_filter.hitSingleRequests          710                       # Number of requests hitting in the snoop filter with a single holder of the requested data. (Count)
system.membus.snoop_filter.hitMultiRequests            0                       # Number of requests hitting in the snoop filter with multiple (>1) holders of the requested data. (Count)
system.membus.snoop_filter.totSnoops                0                       # Total number of snoops made to the snoop filter. (Count)
system.membus.snoop_filter.hitSingleSnoops            0                       # Number of snoops hitting in the snoop filter with a single holder of the requested data. (Count)
system.membus.snoop_filter.hitMultiSnoops            0                       # Number of snoops hitting in the snoop filter with multiple (>1) holders of the requested data. (Count)
system.tol2bus.transDist::ReadResp                544                       # Transaction distribution (Count)
system.tol2bus.transDist::WritebackDirty          728                       # Transaction distribution (Count)
system.tol2bus.transDist::WritebackClean          228                       # Transaction distribution (Count)
system.tol2bus.transDist::CleanEvict              338                       # Transaction distribution (Count)
system.tol2bus.transDist::ReadExReq                27                       # Transaction distribution (Count)
system.tol2bus.transDist::ReadExResp               27                       # Transaction distribution (Count)
system.tol2bus.transDist::ReadCleanReq            229                       # Transaction distribution (Count)
system.tol2bus.transDist::ReadSharedReq           313                       # Transaction distribution (Count)
system.tol2bus.transDist::InvalidateReq             3                       # Transaction distribution (Count)
system.tol2bus.transDist::InvalidateResp            3                       # Transaction distribution (Count)
system.tol2bus.pktCount_system.cpu.icache.mem_side_port::system.l2.cpu_side_port          685                       # Packet count per connected requestor and responder (Count)
system.tol2bus.pktCount_system.cpu.dcache.mem_side_port::system.l2.cpu_side_port         1035                       # Packet count per connected requestor and responder (Count)
system.tol2bus.pktCount::total                   1720                       # Packet count per connected requestor and responder (Count)
system.tol2bus.pktSize_system.cpu.icache.mem_side_port::system.l2.cpu_side_port        29184                       # Cumulative packet size per connected requestor and responder (Byte)
system.tol2bus.pktSize_system.cpu.dcache.mem_side_port::system.l2.cpu_side_port        31424                       # Cumulative packet size per connected requestor and responder (Byte)
system.tol2bus.pktSize::total                   60608                       # Cumulative packet size per connected requestor and responder (Byte)
system.tol2bus.snoops                             720                       # Total snoops (Count)
system.tol2bus.snoopTraffic                     37120                       # Total snoop traffic (Byte)
system.tol2bus.snoopFanout::samples              1292                       # Request fanout histogram (Count)
system.tol2bus.snoopFanout::mean             0.013158                       # Request fanout histogram (Count)
system.tol2bus.snoopFanout::stdev            0.113995                       # Request fanout histogram (Count)
system.tol2bus.snoopFanout::underflows              0      0.00%      0.00% # Request fanout histogram (Count)
system.tol2bus.snoopFanout::0                    1275     98.68%     98.68% # Request fanout histogram (Count)
system.tol2bus.snoopFanout::1                      17      1.32%    100.00% # Request fanout histogram (Count)
system.tol2bus.snoopFanout::2                       0      0.00%    100.00% # Request fanout histogram (Count)
system.tol2bus.snoopFanout::overflows               0      0.00%    100.00% # Request fanout histogram (Count)
system.tol2bus.snoopFanout::min_value               0                       # Request fanout histogram (Count)
system.tol2bus.snoopFanout::max_value               1                       # Request fanout histogram (Count)
system.tol2bus.snoopFanout::total                1292                       # Request fanout histogram (Count)
system.tol2bus.power_state.pwrStateResidencyTicks::UNDEFINED     29509000                       # Cumulative time (in ticks) in various power states (Tick)
system.tol2bus.reqLayer0.occupancy             949000                       # Layer occupancy (ticks) (Tick)
system.tol2bus.reqLayer0.utilization              0.0                       # Layer utilization (Ratio)
system.tol2bus.respLayer0.occupancy            342000                       # Layer occupancy (ticks) (Tick)
system.tol2bus.respLayer0.utilization             0.0                       # Layer utilization (Ratio)
system.tol2bus.respLayer1.occupancy            516000                       # Layer occupancy (ticks) (Tick)
system.tol2bus.respLayer1.utilization             0.0                       # Layer utilization (Ratio)
system.tol2bus.snoop_filter.totRequests          1146                       # Total number of requests made to the snoop filter. (Count)
system.tol2bus.snoop_filter.hitSingleRequests          574                       # Number of requests hitting in the snoop filter with a single holder of the requested data. (Count)
system.tol2bus.snoop_filter.hitMultiRequests            0                       # Number of requests hitting in the snoop filter with multiple (>1) holders of the requested data. (Count)
system.tol2bus.snoop_filter.totSnoops              17                       # Total number of snoops made to the snoop filter. (Count)
system.tol2bus.snoop_filter.hitSingleSnoops           17                       # Number of snoops hitting in the snoop filter with a single holder of the requested data. (Count)
system.tol2bus.snoop_filter.hitMultiSnoops            0                       # Number of snoops hitting in the snoop filter with multiple (>1) holders of the requested data. (Count)
system.voltage_domain.voltage                       1                       # Voltage in Volts (Volt)
system.workload.inst.arm                            0                       # number of arm instructions executed (Count)
system.workload.inst.quiesce                        0                       # number of quiesce instructions executed (Count)

---------- End Simulation Statistics   ----------
