
---------- Begin Simulation Statistics ----------
simSeconds                                   0.008453                       # Number of seconds simulated (Second)
simTicks                                   8452652000                       # Number of ticks simulated (Tick)
finalTick                                  8452652000                       # Number of ticks from beginning of simulation (restored from checkpoints and never reset) (Tick)
simFreq                                  1000000000000                       # The number of ticks per simulated second ((Tick/Second))
hostSeconds                                     76.94                       # Real time elapsed on the host (Second)
hostTickRate                                109863473                       # The number of ticks simulated per host second (ticks/s) ((Tick/Second))
hostMemory                                     681140                       # Number of bytes of host memory used (Byte)
simInsts                                     20459620                       # Number of instructions simulated (Count)
simOps                                       23021862                       # Number of ops (including micro ops) simulated (Count)
hostInstRate                                   265924                       # Simulator instruction rate (inst/s) ((Count/Second))
hostOpRate                                     299226                       # Simulator op (including micro ops) rate (op/s) ((Count/Second))
system.clk_domain.clock                          1000                       # Clock period in ticks (Tick)
system.cpu.numCycles                         16905305                       # Number of cpu cycles simulated (Cycle)
system.cpu.numWorkItemsStarted                      0                       # Number of work items this cpu started (Count)
system.cpu.numWorkItemsCompleted                    0                       # Number of work items this cpu completed (Count)
system.cpu.instsAdded                        23664485                       # Number of instructions added to the IQ (excludes non-spec) (Count)
system.cpu.nonSpecInstsAdded                      406                       # Number of non-speculative instructions added to the IQ (Count)
system.cpu.instsIssued                       23442810                       # Number of instructions issued (Count)
system.cpu.squashedInstsIssued                   4141                       # Number of squashed instructions issued (Count)
system.cpu.squashedInstsExamined               643028                       # Number of squashed instructions iterated over during squash; mainly for profiling (Count)
system.cpu.squashedOperandsExamined            568512                       # Number of squashed operands that are examined and possibly removed from graph (Count)
system.cpu.squashedNonSpecRemoved                 133                       # Number of squashed non-spec instructions that were removed (Count)
system.cpu.numIssuedDist::samples            16766154                       # Number of insts issued each cycle (Count)
system.cpu.numIssuedDist::mean               1.398222                       # Number of insts issued each cycle (Count)
system.cpu.numIssuedDist::stdev              2.411288                       # Number of insts issued each cycle (Count)
system.cpu.numIssuedDist::underflows                0      0.00%      0.00% # Number of insts issued each cycle (Count)
system.cpu.numIssuedDist::0                  11285935     67.31%     67.31% # Number of insts issued each cycle (Count)
system.cpu.numIssuedDist::1                    783932      4.68%     71.99% # Number of insts issued each cycle (Count)
system.cpu.numIssuedDist::2                    764151      4.56%     76.55% # Number of insts issued each cycle (Count)
system.cpu.numIssuedDist::3                    779220      4.65%     81.19% # Number of insts issued each cycle (Count)
system.cpu.numIssuedDist::4                    825810      4.93%     86.12% # Number of insts issued each cycle (Count)
system.cpu.numIssuedDist::5                    507562      3.03%     89.15% # Number of insts issued each cycle (Count)
system.cpu.numIssuedDist::6                    561424      3.35%     92.50% # Number of insts issued each cycle (Count)
system.cpu.numIssuedDist::7                    481638      2.87%     95.37% # Number of insts issued each cycle (Count)
system.cpu.numIssuedDist::8                    776482      4.63%    100.00% # Number of insts issued each cycle (Count)
system.cpu.numIssuedDist::overflows                 0      0.00%    100.00% # Number of insts issued each cycle (Count)
system.cpu.numIssuedDist::min_value                 0                       # Number of insts issued each cycle (Count)
system.cpu.numIssuedDist::max_value                 8                       # Number of insts issued each cycle (Count)
system.cpu.numIssuedDist::total              16766154                       # Number of insts issued each cycle (Count)
system.cpu.statFuBusy::No_OpClass                   0      0.00%      0.00% # attempts to use FU when none available (Count)
system.cpu.statFuBusy::IntAlu                   21832      3.56%      3.56% # attempts to use FU when none available (Count)
system.cpu.statFuBusy::IntMult                    902      0.15%      3.71% # attempts to use FU when none available (Count)
system.cpu.statFuBusy::IntDiv                    1192      0.19%      3.90% # attempts to use FU when none available (Count)
system.cpu.statFuBusy::FloatAdd                     0      0.00%      3.90% # attempts to use FU when none available (Count)
system.cpu.statFuBusy::FloatCmp                     0      0.00%      3.90% # attempts to use FU when none available (Count)
system.cpu.statFuBusy::FloatCvt                     0      0.00%      3.90% # attempts to use FU when none available (Count)
system.cpu.statFuBusy::FloatMult                    0      0.00%      3.90% # attempts to use FU when none available (Count)
system.cpu.statFuBusy::FloatMultAcc                 0      0.00%      3.90% # attempts to use FU when none available (Count)
system.cpu.statFuBusy::FloatDiv                     0      0.00%      3.90% # attempts to use FU when none available (Count)
system.cpu.statFuBusy::FloatMisc                    0      0.00%      3.90% # attempts to use FU when none available (Count)
system.cpu.statFuBusy::FloatSqrt                    0      0.00%      3.90% # attempts to use FU when none available (Count)
system.cpu.statFuBusy::SimdAdd                    404      0.07%      3.97% # attempts to use FU when none available (Count)
system.cpu.statFuBusy::SimdAddAcc                   0      0.00%      3.97% # attempts to use FU when none available (Count)
system.cpu.statFuBusy::SimdAlu                     51      0.01%      3.97% # attempts to use FU when none available (Count)
system.cpu.statFuBusy::SimdCmp                     17      0.00%      3.98% # attempts to use FU when none available (Count)
system.cpu.statFuBusy::SimdCvt                      0      0.00%      3.98% # attempts to use FU when none available (Count)
system.cpu.statFuBusy::SimdMisc                     0      0.00%      3.98% # attempts to use FU when none available (Count)
system.cpu.statFuBusy::SimdMult                245017     39.94%     43.92% # attempts to use FU when none available (Count)
system.cpu.statFuBusy::SimdMultAcc             286043     46.63%     90.55% # attempts to use FU when none available (Count)
system.cpu.statFuBusy::SimdShift                    0      0.00%     90.55% # attempts to use FU when none available (Count)
system.cpu.statFuBusy::SimdShiftAcc                 0      0.00%     90.55% # attempts to use FU when none available (Count)
system.cpu.statFuBusy::SimdDiv                      0      0.00%     90.55% # attempts to use FU when none available (Count)
system.cpu.statFuBusy::SimdSqrt                     0      0.00%     90.55% # attempts to use FU when none available (Count)
system.cpu.statFuBusy::SimdFloatAdd                 0      0.00%     90.55% # attempts to use FU when none available (Count)
system.cpu.statFuBusy::SimdFloatAlu                 0      0.00%     90.55% # attempts to use FU when none available (Count)
system.cpu.statFuBusy::SimdFloatCmp                 0      0.00%     90.55% # attempts to use FU when none available (Count)
system.cpu.statFuBusy::SimdFloatCvt                 0      0.00%     90.55% # attempts to use FU when none available (Count)
system.cpu.statFuBusy::SimdFloatDiv                 0      0.00%     90.55% # attempts to use FU when none available (Count)
system.cpu.statFuBusy::SimdFloatMisc                0      0.00%     90.55% # attempts to use FU when none available (Count)
system.cpu.statFuBusy::SimdFloatMult                0      0.00%     90.55% # attempts to use FU when none available (Count)
system.cpu.statFuBusy::SimdFloatMultAcc             0      0.00%     90.55% # attempts to use FU when none available (Count)
system.cpu.statFuBusy::SimdFloatSqrt                0      0.00%     90.55% # attempts to use FU when none available (Count)
system.cpu.statFuBusy::SimdReduceAdd                0      0.00%     90.55% # attempts to use FU when none available (Count)
system.cpu.statFuBusy::SimdReduceAlu                0      0.00%     90.55% # attempts to use FU when none available (Count)
system.cpu.statFuBusy::SimdReduceCmp                0      0.00%     90.55% # attempts to use FU when none available (Count)
system.cpu.statFuBusy::SimdFloatReduceAdd            0      0.00%     90.55% # attempts to use FU when none available (Count)
system.cpu.statFuBusy::SimdFloatReduceCmp            0      0.00%     90.55% # attempts to use FU when none available (Count)
system.cpu.statFuBusy::SimdAes                      0      0.00%     90.55% # attempts to use FU when none available (Count)
system.cpu.statFuBusy::SimdAesMix                   0      0.00%     90.55% # attempts to use FU when none available (Count)
system.cpu.statFuBusy::SimdSha1Hash                 0      0.00%     90.55% # attempts to use FU when none available (Count)
system.cpu.statFuBusy::SimdSha1Hash2                0      0.00%     90.55% # attempts to use FU when none available (Count)
system.cpu.statFuBusy::SimdSha256Hash               0      0.00%     90.55% # attempts to use FU when none available (Count)
system.cpu.statFuBusy::SimdSha256Hash2              0      0.00%     90.55% # attempts to use FU when none available (Count)
system.cpu.statFuBusy::SimdShaSigma2                0      0.00%     90.55% # attempts to use FU when none available (Count)
system.cpu.statFuBusy::SimdShaSigma3                0      0.00%     90.55% # attempts to use FU when none available (Count)
system.cpu.statFuBusy::SimdPredAlu                  0      0.00%     90.55% # attempts to use FU when none available (Count)
system.cpu.statFuBusy::MemRead                  43017      7.01%     97.56% # attempts to use FU when none available (Count)
system.cpu.statFuBusy::MemWrite                 14979      2.44%    100.00% # attempts to use FU when none available (Count)
system.cpu.statFuBusy::FloatMemRead                 0      0.00%    100.00% # attempts to use FU when none available (Count)
system.cpu.statFuBusy::FloatMemWrite                0      0.00%    100.00% # attempts to use FU when none available (Count)
system.cpu.statFuBusy::IprAccess                    0      0.00%    100.00% # attempts to use FU when none available (Count)
system.cpu.statFuBusy::InstPrefetch                 0      0.00%    100.00% # attempts to use FU when none available (Count)
system.cpu.statIssuedInstType_0::No_OpClass      1147683      4.90%      4.90% # Number of instructions issued per FU type, per thread (Count)
system.cpu.statIssuedInstType_0::IntAlu      10040643     42.83%     47.73% # Number of instructions issued per FU type, per thread (Count)
system.cpu.statIssuedInstType_0::IntMult       801950      3.42%     51.15% # Number of instructions issued per FU type, per thread (Count)
system.cpu.statIssuedInstType_0::IntDiv          2712      0.01%     51.16% # Number of instructions issued per FU type, per thread (Count)
system.cpu.statIssuedInstType_0::FloatAdd            0      0.00%     51.16% # Number of instructions issued per FU type, per thread (Count)
system.cpu.statIssuedInstType_0::FloatCmp            0      0.00%     51.16% # Number of instructions issued per FU type, per thread (Count)
system.cpu.statIssuedInstType_0::FloatCvt            0      0.00%     51.16% # Number of instructions issued per FU type, per thread (Count)
system.cpu.statIssuedInstType_0::FloatMult            0      0.00%     51.16% # Number of instructions issued per FU type, per thread (Count)
system.cpu.statIssuedInstType_0::FloatMultAcc            0      0.00%     51.16% # Number of instructions issued per FU type, per thread (Count)
system.cpu.statIssuedInstType_0::FloatDiv            0      0.00%     51.16% # Number of instructions issued per FU type, per thread (Count)
system.cpu.statIssuedInstType_0::FloatMisc            2      0.00%     51.16% # Number of instructions issued per FU type, per thread (Count)
system.cpu.statIssuedInstType_0::FloatSqrt            0      0.00%     51.16% # Number of instructions issued per FU type, per thread (Count)
system.cpu.statIssuedInstType_0::SimdAdd      1574386      6.72%     57.87% # Number of instructions issued per FU type, per thread (Count)
system.cpu.statIssuedInstType_0::SimdAddAcc            0      0.00%     57.87% # Number of instructions issued per FU type, per thread (Count)
system.cpu.statIssuedInstType_0::SimdAlu          412      0.00%     57.88% # Number of instructions issued per FU type, per thread (Count)
system.cpu.statIssuedInstType_0::SimdCmp          125      0.00%     57.88% # Number of instructions issued per FU type, per thread (Count)
system.cpu.statIssuedInstType_0::SimdCvt            0      0.00%     57.88% # Number of instructions issued per FU type, per thread (Count)
system.cpu.statIssuedInstType_0::SimdMisc      1574552      6.72%     64.59% # Number of instructions issued per FU type, per thread (Count)
system.cpu.statIssuedInstType_0::SimdMult      1595952      6.81%     71.40% # Number of instructions issued per FU type, per thread (Count)
system.cpu.statIssuedInstType_0::SimdMultAcc      1574442      6.72%     78.12% # Number of instructions issued per FU type, per thread (Count)
system.cpu.statIssuedInstType_0::SimdShift            0      0.00%     78.12% # Number of instructions issued per FU type, per thread (Count)
system.cpu.statIssuedInstType_0::SimdShiftAcc            0      0.00%     78.12% # Number of instructions issued per FU type, per thread (Count)
system.cpu.statIssuedInstType_0::SimdDiv            0      0.00%     78.12% # Number of instructions issued per FU type, per thread (Count)
system.cpu.statIssuedInstType_0::SimdSqrt            0      0.00%     78.12% # Number of instructions issued per FU type, per thread (Count)
system.cpu.statIssuedInstType_0::SimdFloatAdd            0      0.00%     78.12% # Number of instructions issued per FU type, per thread (Count)
system.cpu.statIssuedInstType_0::SimdFloatAlu            0      0.00%     78.12% # Number of instructions issued per FU type, per thread (Count)
system.cpu.statIssuedInstType_0::SimdFloatCmp            0      0.00%     78.12% # Number of instructions issued per FU type, per thread (Count)
system.cpu.statIssuedInstType_0::SimdFloatCvt            0      0.00%     78.12% # Number of instructions issued per FU type, per thread (Count)
system.cpu.statIssuedInstType_0::SimdFloatDiv            0      0.00%     78.12% # Number of instructions issued per FU type, per thread (Count)
system.cpu.statIssuedInstType_0::SimdFloatMisc            0      0.00%     78.12% # Number of instructions issued per FU type, per thread (Count)
system.cpu.statIssuedInstType_0::SimdFloatMult            0      0.00%     78.12% # Number of instructions issued per FU type, per thread (Count)
system.cpu.statIssuedInstType_0::SimdFloatMultAcc            0      0.00%     78.12% # Number of instructions issued per FU type, per thread (Count)
system.cpu.statIssuedInstType_0::SimdFloatSqrt            0      0.00%     78.12% # Number of instructions issued per FU type, per thread (Count)
system.cpu.statIssuedInstType_0::SimdReduceAdd            0      0.00%     78.12% # Number of instructions issued per FU type, per thread (Count)
system.cpu.statIssuedInstType_0::SimdReduceAlu            0      0.00%     78.12% # Number of instructions issued per FU type, per thread (Count)
system.cpu.statIssuedInstType_0::SimdReduceCmp            0      0.00%     78.12% # Number of instructions issued per FU type, per thread (Count)
system.cpu.statIssuedInstType_0::SimdFloatReduceAdd            0      0.00%     78.12% # Number of instructions issued per FU type, per thread (Count)
system.cpu.statIssuedInstType_0::SimdFloatReduceCmp            0      0.00%     78.12% # Number of instructions issued per FU type, per thread (Count)
system.cpu.statIssuedInstType_0::SimdAes            0      0.00%     78.12% # Number of instructions issued per FU type, per thread (Count)
system.cpu.statIssuedInstType_0::SimdAesMix            0      0.00%     78.12% # Number of instructions issued per FU type, per thread (Count)
system.cpu.statIssuedInstType_0::SimdSha1Hash            0      0.00%     78.12% # Number of instructions issued per FU type, per thread (Count)
system.cpu.statIssuedInstType_0::SimdSha1Hash2            0      0.00%     78.12% # Number of instructions issued per FU type, per thread (Count)
system.cpu.statIssuedInstType_0::SimdSha256Hash            0      0.00%     78.12% # Number of instructions issued per FU type, per thread (Count)
system.cpu.statIssuedInstType_0::SimdSha256Hash2            0      0.00%     78.12% # Number of instructions issued per FU type, per thread (Count)
system.cpu.statIssuedInstType_0::SimdShaSigma2            0      0.00%     78.12% # Number of instructions issued per FU type, per thread (Count)
system.cpu.statIssuedInstType_0::SimdShaSigma3            0      0.00%     78.12% # Number of instructions issued per FU type, per thread (Count)
system.cpu.statIssuedInstType_0::SimdPredAlu            0      0.00%     78.12% # Number of instructions issued per FU type, per thread (Count)
system.cpu.statIssuedInstType_0::MemRead      4121638     17.58%     95.70% # Number of instructions issued per FU type, per thread (Count)
system.cpu.statIssuedInstType_0::MemWrite      1008313      4.30%    100.00% # Number of instructions issued per FU type, per thread (Count)
system.cpu.statIssuedInstType_0::FloatMemRead            0      0.00%    100.00% # Number of instructions issued per FU type, per thread (Count)
system.cpu.statIssuedInstType_0::FloatMemWrite            0      0.00%    100.00% # Number of instructions issued per FU type, per thread (Count)
system.cpu.statIssuedInstType_0::IprAccess            0      0.00%    100.00% # Number of instructions issued per FU type, per thread (Count)
system.cpu.statIssuedInstType_0::InstPrefetch            0      0.00%    100.00% # Number of instructions issued per FU type, per thread (Count)
system.cpu.statIssuedInstType_0::total       23442810                       # Number of instructions issued per FU type, per thread (Count)
system.cpu.issueRate                         1.386713                       # Inst issue rate ((Count/Cycle))
system.cpu.fuBusy                              613454                       # FU busy when requested (Count)
system.cpu.fuBusyRate                        0.026168                       # FU busy rate (busy events/executed inst) ((Count/Count))
system.cpu.intInstQueueReads                 44181887                       # Number of integer instruction queue reads (Count)
system.cpu.intInstQueueWrites                14476416                       # Number of integer instruction queue writes (Count)
system.cpu.intInstQueueWakeupAccesses        13578524                       # Number of integer instruction queue wakeup accesses (Count)
system.cpu.fpInstQueueReads                         0                       # Number of floating instruction queue reads (Count)
system.cpu.fpInstQueueWrites                        0                       # Number of floating instruction queue writes (Count)
system.cpu.fpInstQueueWakeupAccesses                0                       # Number of floating instruction queue wakeup accesses (Count)
system.cpu.vecInstQueueReads                 20087482                       # Number of vector instruction queue reads (Count)
system.cpu.vecInstQueueWrites                 9831751                       # Number of vector instruction queue writes (Count)
system.cpu.vecInstQueueWakeupAccesses         9763839                       # Number of vector instruction queue wakeup accesses (Count)
system.cpu.intAluAccesses                    13735780                       # Number of integer alu accesses (Count)
system.cpu.fpAluAccesses                            0                       # Number of floating point alu accesses (Count)
system.cpu.vecAluAccesses                     9172801                       # Number of vector alu accesses (Count)
system.cpu.numInsts                          23411659                       # Number of executed instructions (Count)
system.cpu.numLoadInsts                       4106935                       # Number of load instructions executed (Count)
system.cpu.numSquashedInsts                     31151                       # Number of squashed instructions skipped in execute (Count)
system.cpu.numSwp                                   0                       # Number of swp insts executed (Count)
system.cpu.numNop                                1352                       # Number of nop insts executed (Count)
system.cpu.numRefs                            5113437                       # Number of memory reference insts executed (Count)
system.cpu.numBranches                        2440804                       # Number of branches executed (Count)
system.cpu.numStoreInsts                      1006502                       # Number of stores executed (Count)
system.cpu.numRate                           1.384871                       # Inst execution rate ((Count/Cycle))
system.cpu.timesIdled                            1467                       # Number of times that the entire CPU went into an idle state and unscheduled itself (Count)
system.cpu.idleCycles                          139151                       # Total number of cycles that the CPU has spent unscheduled due to idling (Cycle)
system.cpu.committedInsts                    20459620                       # Number of Instructions Simulated (Count)
system.cpu.committedOps                      23021862                       # Number of Ops (including micro ops) Simulated (Count)
system.cpu.cpi                               0.826277                       # CPI: Cycles Per Instruction ((Cycle/Count))
system.cpu.totalCpi                          0.826277                       # CPI: Total CPI of All Threads ((Cycle/Count))
system.cpu.ipc                               1.210248                       # IPC: Instructions Per Cycle ((Count/Cycle))
system.cpu.totalIpc                          1.210248                       # IPC: Total IPC of All Threads ((Count/Cycle))
system.cpu.intRegfileReads                   22905946                       # Number of integer regfile reads (Count)
system.cpu.intRegfileWrites                   9209188                       # Number of integer regfile writes (Count)
system.cpu.vecRegfileReads                   23841550                       # number of vector regfile reads (Count)
system.cpu.ccRegfileReads                     7766265                       # number of cc regfile reads (Count)
system.cpu.ccRegfileWrites                    7764720                       # number of cc regfile writes (Count)
system.cpu.miscRegfileReads                  17522679                       # number of misc regfile reads (Count)
system.cpu.miscRegfileWrites                      213                       # number of misc regfile writes (Count)
system.cpu.MemDepUnit__0.insertedLoads        4108358                       # Number of loads inserted to the mem dependence unit. (Count)
system.cpu.MemDepUnit__0.insertedStores       1016750                       # Number of stores inserted to the mem dependence unit. (Count)
system.cpu.MemDepUnit__0.conflictingLoads       718640                       # Number of conflicting loads. (Count)
system.cpu.MemDepUnit__0.conflictingStores       427352                       # Number of conflicting stores. (Count)
system.cpu.MemDepUnit__1.insertedLoads              0                       # Number of loads inserted to the mem dependence unit. (Count)
system.cpu.MemDepUnit__1.insertedStores             0                       # Number of stores inserted to the mem dependence unit. (Count)
system.cpu.MemDepUnit__1.conflictingLoads            0                       # Number of conflicting loads. (Count)
system.cpu.MemDepUnit__1.conflictingStores            0                       # Number of conflicting stores. (Count)
system.cpu.MemDepUnit__2.insertedLoads              0                       # Number of loads inserted to the mem dependence unit. (Count)
system.cpu.MemDepUnit__2.insertedStores             0                       # Number of stores inserted to the mem dependence unit. (Count)
system.cpu.MemDepUnit__2.conflictingLoads            0                       # Number of conflicting loads. (Count)
system.cpu.MemDepUnit__2.conflictingStores            0                       # Number of conflicting stores. (Count)
system.cpu.MemDepUnit__3.insertedLoads              0                       # Number of loads inserted to the mem dependence unit. (Count)
system.cpu.MemDepUnit__3.insertedStores             0                       # Number of stores inserted to the mem dependence unit. (Count)
system.cpu.MemDepUnit__3.conflictingLoads            0                       # Number of conflicting loads. (Count)
system.cpu.MemDepUnit__3.conflictingStores            0                       # Number of conflicting stores. (Count)
system.cpu.branchPred.lookups                 2576912                       # Number of BP lookups (Count)
system.cpu.branchPred.condPredicted           2502309                       # Number of conditional branches predicted (Count)
system.cpu.branchPred.condIncorrect             18033                       # Number of conditional branches incorrect (Count)
system.cpu.branchPred.BTBLookups               332197                       # Number of BTB lookups (Count)
system.cpu.branchPred.BTBUpdates                 9561                       # Number of BTB updates (Count)
system.cpu.branchPred.BTBHits                  329309                       # Number of BTB hits (Count)
system.cpu.branchPred.BTBHitRatio            0.991306                       # BTB Hit Ratio (Ratio)
system.cpu.branchPred.RASUsed                   17573                       # Number of times the RAS was used to get a target. (Count)
system.cpu.branchPred.RASIncorrect                 40                       # Number of incorrect RAS predictions. (Count)
system.cpu.branchPred.indirectLookups            6753                       # Number of indirect predictor lookups. (Count)
system.cpu.branchPred.indirectHits               1330                       # Number of indirect target hits. (Count)
system.cpu.branchPred.indirectMisses             5423                       # Number of indirect misses. (Count)
system.cpu.branchPred.indirectMispredicted          669                       # Number of mispredicted indirect branches. (Count)
system.cpu.commit.commitSquashedInsts          636951                       # The number of squashed insts skipped by commit (Count)
system.cpu.commit.commitNonSpecStalls             273                       # The number of times commit has been forced to stall to communicate backwards (Count)
system.cpu.commit.branchMispredicts             17986                       # The number of times a branch was mispredicted (Count)
system.cpu.commit.numCommittedDist::samples     16668153                       # Number of insts commited each cycle (Count)
system.cpu.commit.numCommittedDist::mean     1.381250                       # Number of insts commited each cycle (Count)
system.cpu.commit.numCommittedDist::stdev     2.816592                       # Number of insts commited each cycle (Count)
system.cpu.commit.numCommittedDist::underflows            0      0.00%      0.00% # Number of insts commited each cycle (Count)
system.cpu.commit.numCommittedDist::0        12430835     74.58%     74.58% # Number of insts commited each cycle (Count)
system.cpu.commit.numCommittedDist::1         1033331      6.20%     80.78% # Number of insts commited each cycle (Count)
system.cpu.commit.numCommittedDist::2          223892      1.34%     82.12% # Number of insts commited each cycle (Count)
system.cpu.commit.numCommittedDist::3           77584      0.47%     82.59% # Number of insts commited each cycle (Count)
system.cpu.commit.numCommittedDist::4          271299      1.63%     84.21% # Number of insts commited each cycle (Count)
system.cpu.commit.numCommittedDist::5          118448      0.71%     84.92% # Number of insts commited each cycle (Count)
system.cpu.commit.numCommittedDist::6          171977      1.03%     85.96% # Number of insts commited each cycle (Count)
system.cpu.commit.numCommittedDist::7          126577      0.76%     86.72% # Number of insts commited each cycle (Count)
system.cpu.commit.numCommittedDist::8         2214210     13.28%    100.00% # Number of insts commited each cycle (Count)
system.cpu.commit.numCommittedDist::overflows            0      0.00%    100.00% # Number of insts commited each cycle (Count)
system.cpu.commit.numCommittedDist::min_value            0                       # Number of insts commited each cycle (Count)
system.cpu.commit.numCommittedDist::max_value            8                       # Number of insts commited each cycle (Count)
system.cpu.commit.numCommittedDist::total     16668153                       # Number of insts commited each cycle (Count)
system.cpu.commit.instsCommitted             20460642                       # Number of instructions committed (Count)
system.cpu.commit.opsCommitted               23022884                       # Number of ops (including micro ops) committed (Count)
system.cpu.commit.memRefs                     4965302                       # Number of memory references committed (Count)
system.cpu.commit.loads                       3988576                       # Number of loads committed (Count)
system.cpu.commit.amos                            106                       # Number of atomic instructions committed (Count)
system.cpu.commit.membars                         114                       # Number of memory barriers committed (Count)
system.cpu.commit.branches                    2389705                       # Number of branches committed (Count)
system.cpu.commit.vectorInstructions          9754087                       # Number of committed Vector instructions. (Count)
system.cpu.commit.floating                          0                       # Number of committed floating point instructions. (Count)
system.cpu.commit.integer                    15161311                       # Number of committed integer instructions. (Count)
system.cpu.commit.functionCalls                 11001                       # Number of function calls committed. (Count)
system.cpu.commit.committedInstType_0::No_OpClass      1145266      4.97%      4.97% # Class of committed instruction (Count)
system.cpu.commit.committedInstType_0::IntAlu      9796266     42.55%     47.52% # Class of committed instruction (Count)
system.cpu.commit.committedInstType_0::IntMult       797405      3.46%     50.99% # Class of committed instruction (Count)
system.cpu.commit.committedInstType_0::IntDiv         2565      0.01%     51.00% # Class of committed instruction (Count)
system.cpu.commit.committedInstType_0::FloatAdd            0      0.00%     51.00% # Class of committed instruction (Count)
system.cpu.commit.committedInstType_0::FloatCmp            0      0.00%     51.00% # Class of committed instruction (Count)
system.cpu.commit.committedInstType_0::FloatCvt            0      0.00%     51.00% # Class of committed instruction (Count)
system.cpu.commit.committedInstType_0::FloatMult            0      0.00%     51.00% # Class of committed instruction (Count)
system.cpu.commit.committedInstType_0::FloatMultAcc            0      0.00%     51.00% # Class of committed instruction (Count)
system.cpu.commit.committedInstType_0::FloatDiv            0      0.00%     51.00% # Class of committed instruction (Count)
system.cpu.commit.committedInstType_0::FloatMisc            2      0.00%     51.00% # Class of committed instruction (Count)
system.cpu.commit.committedInstType_0::FloatSqrt            0      0.00%     51.00% # Class of committed instruction (Count)
system.cpu.commit.committedInstType_0::SimdAdd      1573599      6.83%     57.83% # Class of committed instruction (Count)
system.cpu.commit.committedInstType_0::SimdAddAcc            0      0.00%     57.83% # Class of committed instruction (Count)
system.cpu.commit.committedInstType_0::SimdAlu          353      0.00%     57.84% # Class of committed instruction (Count)
system.cpu.commit.committedInstType_0::SimdCmp           97      0.00%     57.84% # Class of committed instruction (Count)
system.cpu.commit.committedInstType_0::SimdCvt            0      0.00%     57.84% # Class of committed instruction (Count)
system.cpu.commit.committedInstType_0::SimdMisc      1573629      6.84%     64.67% # Class of committed instruction (Count)
system.cpu.commit.committedInstType_0::SimdMult      1594880      6.93%     71.60% # Class of committed instruction (Count)
system.cpu.commit.committedInstType_0::SimdMultAcc      1573520      6.83%     78.43% # Class of committed instruction (Count)
system.cpu.commit.committedInstType_0::SimdShift            0      0.00%     78.43% # Class of committed instruction (Count)
system.cpu.commit.committedInstType_0::SimdShiftAcc            0      0.00%     78.43% # Class of committed instruction (Count)
system.cpu.commit.committedInstType_0::SimdDiv            0      0.00%     78.43% # Class of committed instruction (Count)
system.cpu.commit.committedInstType_0::SimdSqrt            0      0.00%     78.43% # Class of committed instruction (Count)
system.cpu.commit.committedInstType_0::SimdFloatAdd            0      0.00%     78.43% # Class of committed instruction (Count)
system.cpu.commit.committedInstType_0::SimdFloatAlu            0      0.00%     78.43% # Class of committed instruction (Count)
system.cpu.commit.committedInstType_0::SimdFloatCmp            0      0.00%     78.43% # Class of committed instruction (Count)
system.cpu.commit.committedInstType_0::SimdFloatCvt            0      0.00%     78.43% # Class of committed instruction (Count)
system.cpu.commit.committedInstType_0::SimdFloatDiv            0      0.00%     78.43% # Class of committed instruction (Count)
system.cpu.commit.committedInstType_0::SimdFloatMisc            0      0.00%     78.43% # Class of committed instruction (Count)
system.cpu.commit.committedInstType_0::SimdFloatMult            0      0.00%     78.43% # Class of committed instruction (Count)
system.cpu.commit.committedInstType_0::SimdFloatMultAcc            0      0.00%     78.43% # Class of committed instruction (Count)
system.cpu.commit.committedInstType_0::SimdFloatSqrt            0      0.00%     78.43% # Class of committed instruction (Count)
system.cpu.commit.committedInstType_0::SimdReduceAdd            0      0.00%     78.43% # Class of committed instruction (Count)
system.cpu.commit.committedInstType_0::SimdReduceAlu            0      0.00%     78.43% # Class of committed instruction (Count)
system.cpu.commit.committedInstType_0::SimdReduceCmp            0      0.00%     78.43% # Class of committed instruction (Count)
system.cpu.commit.committedInstType_0::SimdFloatReduceAdd            0      0.00%     78.43% # Class of committed instruction (Count)
system.cpu.commit.committedInstType_0::SimdFloatReduceCmp            0      0.00%     78.43% # Class of committed instruction (Count)
system.cpu.commit.committedInstType_0::SimdAes            0      0.00%     78.43% # Class of committed instruction (Count)
system.cpu.commit.committedInstType_0::SimdAesMix            0      0.00%     78.43% # Class of committed instruction (Count)
system.cpu.commit.committedInstType_0::SimdSha1Hash            0      0.00%     78.43% # Class of committed instruction (Count)
system.cpu.commit.committedInstType_0::SimdSha1Hash2            0      0.00%     78.43% # Class of committed instruction (Count)
system.cpu.commit.committedInstType_0::SimdSha256Hash            0      0.00%     78.43% # Class of committed instruction (Count)
system.cpu.commit.committedInstType_0::SimdSha256Hash2            0      0.00%     78.43% # Class of committed instruction (Count)
system.cpu.commit.committedInstType_0::SimdShaSigma2            0      0.00%     78.43% # Class of committed instruction (Count)
system.cpu.commit.committedInstType_0::SimdShaSigma3            0      0.00%     78.43% # Class of committed instruction (Count)
system.cpu.commit.committedInstType_0::SimdPredAlu            0      0.00%     78.43% # Class of committed instruction (Count)
system.cpu.commit.committedInstType_0::MemRead      3988576     17.32%     95.76% # Class of committed instruction (Count)
system.cpu.commit.committedInstType_0::MemWrite       976726      4.24%    100.00% # Class of committed instruction (Count)
system.cpu.commit.committedInstType_0::FloatMemRead            0      0.00%    100.00% # Class of committed instruction (Count)
system.cpu.commit.committedInstType_0::FloatMemWrite            0      0.00%    100.00% # Class of committed instruction (Count)
system.cpu.commit.committedInstType_0::IprAccess            0      0.00%    100.00% # Class of committed instruction (Count)
system.cpu.commit.committedInstType_0::InstPrefetch            0      0.00%    100.00% # Class of committed instruction (Count)
system.cpu.commit.committedInstType_0::total     23022884                       # Class of committed instruction (Count)
system.cpu.commit.commitEligibleSamples       2214210                       # number cycles where commit BW limit reached (Cycle)
system.cpu.dcache.demandHits::cpu.data        4551101                       # number of demand (read+write) hits (Count)
system.cpu.dcache.demandHits::total           4551101                       # number of demand (read+write) hits (Count)
system.cpu.dcache.overallHits::cpu.data       4551101                       # number of overall hits (Count)
system.cpu.dcache.overallHits::total          4551101                       # number of overall hits (Count)
system.cpu.dcache.demandMisses::cpu.data       191616                       # number of demand (read+write) misses (Count)
system.cpu.dcache.demandMisses::total          191616                       # number of demand (read+write) misses (Count)
system.cpu.dcache.overallMisses::cpu.data       191616                       # number of overall misses (Count)
system.cpu.dcache.overallMisses::total         191616                       # number of overall misses (Count)
system.cpu.dcache.demandMissLatency::cpu.data  14267421494                       # number of demand (read+write) miss ticks (Tick)
system.cpu.dcache.demandMissLatency::total  14267421494                       # number of demand (read+write) miss ticks (Tick)
system.cpu.dcache.overallMissLatency::cpu.data  14267421494                       # number of overall miss ticks (Tick)
system.cpu.dcache.overallMissLatency::total  14267421494                       # number of overall miss ticks (Tick)
system.cpu.dcache.demandAccesses::cpu.data      4742717                       # number of demand (read+write) accesses (Count)
system.cpu.dcache.demandAccesses::total       4742717                       # number of demand (read+write) accesses (Count)
system.cpu.dcache.overallAccesses::cpu.data      4742717                       # number of overall (read+write) accesses (Count)
system.cpu.dcache.overallAccesses::total      4742717                       # number of overall (read+write) accesses (Count)
system.cpu.dcache.demandMissRate::cpu.data     0.040402                       # miss rate for demand accesses (Ratio)
system.cpu.dcache.demandMissRate::total      0.040402                       # miss rate for demand accesses (Ratio)
system.cpu.dcache.overallMissRate::cpu.data     0.040402                       # miss rate for overall accesses (Ratio)
system.cpu.dcache.overallMissRate::total     0.040402                       # miss rate for overall accesses (Ratio)
system.cpu.dcache.demandAvgMissLatency::cpu.data 74458.403755                       # average overall miss latency in ticks ((Tick/Count))
system.cpu.dcache.demandAvgMissLatency::total 74458.403755                       # average overall miss latency in ticks ((Tick/Count))
system.cpu.dcache.overallAvgMissLatency::cpu.data 74458.403755                       # average overall miss latency ((Tick/Count))
system.cpu.dcache.overallAvgMissLatency::total 74458.403755                       # average overall miss latency ((Tick/Count))
system.cpu.dcache.blockedCycles::no_mshrs        95516                       # number of cycles access was blocked (Cycle)
system.cpu.dcache.blockedCycles::no_targets          469                       # number of cycles access was blocked (Cycle)
system.cpu.dcache.blockedCauses::no_mshrs         2098                       # number of times access was blocked (Count)
system.cpu.dcache.blockedCauses::no_targets           11                       # number of times access was blocked (Count)
system.cpu.dcache.avgBlocked::no_mshrs      45.527169                       # average number of cycles each access was blocked ((Cycle/Count))
system.cpu.dcache.avgBlocked::no_targets    42.636364                       # average number of cycles each access was blocked ((Cycle/Count))
system.cpu.dcache.writebacks::writebacks        27293                       # number of writebacks (Count)
system.cpu.dcache.writebacks::total             27293                       # number of writebacks (Count)
system.cpu.dcache.demandMshrHits::cpu.data       100726                       # number of demand (read+write) MSHR hits (Count)
system.cpu.dcache.demandMshrHits::total        100726                       # number of demand (read+write) MSHR hits (Count)
system.cpu.dcache.overallMshrHits::cpu.data       100726                       # number of overall MSHR hits (Count)
system.cpu.dcache.overallMshrHits::total       100726                       # number of overall MSHR hits (Count)
system.cpu.dcache.demandMshrMisses::cpu.data        90890                       # number of demand (read+write) MSHR misses (Count)
system.cpu.dcache.demandMshrMisses::total        90890                       # number of demand (read+write) MSHR misses (Count)
system.cpu.dcache.overallMshrMisses::cpu.data        90890                       # number of overall MSHR misses (Count)
system.cpu.dcache.overallMshrMisses::total        90890                       # number of overall MSHR misses (Count)
system.cpu.dcache.demandMshrMissLatency::cpu.data   6797584704                       # number of demand (read+write) MSHR miss ticks (Tick)
system.cpu.dcache.demandMshrMissLatency::total   6797584704                       # number of demand (read+write) MSHR miss ticks (Tick)
system.cpu.dcache.overallMshrMissLatency::cpu.data   6797584704                       # number of overall MSHR miss ticks (Tick)
system.cpu.dcache.overallMshrMissLatency::total   6797584704                       # number of overall MSHR miss ticks (Tick)
system.cpu.dcache.demandMshrMissRate::cpu.data     0.019164                       # mshr miss ratio for demand accesses (Ratio)
system.cpu.dcache.demandMshrMissRate::total     0.019164                       # mshr miss ratio for demand accesses (Ratio)
system.cpu.dcache.overallMshrMissRate::cpu.data     0.019164                       # mshr miss ratio for overall accesses (Ratio)
system.cpu.dcache.overallMshrMissRate::total     0.019164                       # mshr miss ratio for overall accesses (Ratio)
system.cpu.dcache.demandAvgMshrMissLatency::cpu.data 74789.137463                       # average overall mshr miss latency ((Tick/Count))
system.cpu.dcache.demandAvgMshrMissLatency::total 74789.137463                       # average overall mshr miss latency ((Tick/Count))
system.cpu.dcache.overallAvgMshrMissLatency::cpu.data 74789.137463                       # average overall mshr miss latency ((Tick/Count))
system.cpu.dcache.overallAvgMshrMissLatency::total 74789.137463                       # average overall mshr miss latency ((Tick/Count))
system.cpu.dcache.replacements                  89872                       # number of replacements (Count)
system.cpu.dcache.ReadReq.hits::cpu.data      3580147                       # number of ReadReq hits (Count)
system.cpu.dcache.ReadReq.hits::total         3580147                       # number of ReadReq hits (Count)
system.cpu.dcache.ReadReq.misses::cpu.data       185936                       # number of ReadReq misses (Count)
system.cpu.dcache.ReadReq.misses::total        185936                       # number of ReadReq misses (Count)
system.cpu.dcache.ReadReq.missLatency::cpu.data  13917581500                       # number of ReadReq miss ticks (Tick)
system.cpu.dcache.ReadReq.missLatency::total  13917581500                       # number of ReadReq miss ticks (Tick)
system.cpu.dcache.ReadReq.accesses::cpu.data      3766083                       # number of ReadReq accesses(hits+misses) (Count)
system.cpu.dcache.ReadReq.accesses::total      3766083                       # number of ReadReq accesses(hits+misses) (Count)
system.cpu.dcache.ReadReq.missRate::cpu.data     0.049371                       # miss rate for ReadReq accesses (Ratio)
system.cpu.dcache.ReadReq.missRate::total     0.049371                       # miss rate for ReadReq accesses (Ratio)
system.cpu.dcache.ReadReq.avgMissLatency::cpu.data 74851.462331                       # average ReadReq miss latency ((Tick/Count))
system.cpu.dcache.ReadReq.avgMissLatency::total 74851.462331                       # average ReadReq miss latency ((Tick/Count))
system.cpu.dcache.ReadReq.mshrHits::cpu.data        97299                       # number of ReadReq MSHR hits (Count)
system.cpu.dcache.ReadReq.mshrHits::total        97299                       # number of ReadReq MSHR hits (Count)
system.cpu.dcache.ReadReq.mshrMisses::cpu.data        88637                       # number of ReadReq MSHR misses (Count)
system.cpu.dcache.ReadReq.mshrMisses::total        88637                       # number of ReadReq MSHR misses (Count)
system.cpu.dcache.ReadReq.mshrMissLatency::cpu.data   6661202500                       # number of ReadReq MSHR miss ticks (Tick)
system.cpu.dcache.ReadReq.mshrMissLatency::total   6661202500                       # number of ReadReq MSHR miss ticks (Tick)
system.cpu.dcache.ReadReq.mshrMissRate::cpu.data     0.023536                       # mshr miss rate for ReadReq accesses (Ratio)
system.cpu.dcache.ReadReq.mshrMissRate::total     0.023536                       # mshr miss rate for ReadReq accesses (Ratio)
system.cpu.dcache.ReadReq.avgMshrMissLatency::cpu.data 75151.488656                       # average ReadReq mshr miss latency ((Tick/Count))
system.cpu.dcache.ReadReq.avgMshrMissLatency::total 75151.488656                       # average ReadReq mshr miss latency ((Tick/Count))
system.cpu.dcache.SwapReq.hits::cpu.data          100                       # number of SwapReq hits (Count)
system.cpu.dcache.SwapReq.hits::total             100                       # number of SwapReq hits (Count)
system.cpu.dcache.SwapReq.misses::cpu.data            6                       # number of SwapReq misses (Count)
system.cpu.dcache.SwapReq.misses::total             6                       # number of SwapReq misses (Count)
system.cpu.dcache.SwapReq.missLatency::cpu.data       386000                       # number of SwapReq miss ticks (Tick)
system.cpu.dcache.SwapReq.missLatency::total       386000                       # number of SwapReq miss ticks (Tick)
system.cpu.dcache.SwapReq.accesses::cpu.data          106                       # number of SwapReq accesses(hits+misses) (Count)
system.cpu.dcache.SwapReq.accesses::total          106                       # number of SwapReq accesses(hits+misses) (Count)
system.cpu.dcache.SwapReq.missRate::cpu.data     0.056604                       # miss rate for SwapReq accesses (Ratio)
system.cpu.dcache.SwapReq.missRate::total     0.056604                       # miss rate for SwapReq accesses (Ratio)
system.cpu.dcache.SwapReq.avgMissLatency::cpu.data 64333.333333                       # average SwapReq miss latency ((Tick/Count))
system.cpu.dcache.SwapReq.avgMissLatency::total 64333.333333                       # average SwapReq miss latency ((Tick/Count))
system.cpu.dcache.SwapReq.mshrMisses::cpu.data            6                       # number of SwapReq MSHR misses (Count)
system.cpu.dcache.SwapReq.mshrMisses::total            6                       # number of SwapReq MSHR misses (Count)
system.cpu.dcache.SwapReq.mshrMissLatency::cpu.data       380000                       # number of SwapReq MSHR miss ticks (Tick)
system.cpu.dcache.SwapReq.mshrMissLatency::total       380000                       # number of SwapReq MSHR miss ticks (Tick)
system.cpu.dcache.SwapReq.mshrMissRate::cpu.data     0.056604                       # mshr miss rate for SwapReq accesses (Ratio)
system.cpu.dcache.SwapReq.mshrMissRate::total     0.056604                       # mshr miss rate for SwapReq accesses (Ratio)
system.cpu.dcache.SwapReq.avgMshrMissLatency::cpu.data 63333.333333                       # average SwapReq mshr miss latency ((Tick/Count))
system.cpu.dcache.SwapReq.avgMshrMissLatency::total 63333.333333                       # average SwapReq mshr miss latency ((Tick/Count))
system.cpu.dcache.WriteLineReq.misses::cpu.data          131                       # number of WriteLineReq misses (Count)
system.cpu.dcache.WriteLineReq.misses::total          131                       # number of WriteLineReq misses (Count)
system.cpu.dcache.WriteLineReq.missLatency::cpu.data      4174908                       # number of WriteLineReq miss ticks (Tick)
system.cpu.dcache.WriteLineReq.missLatency::total      4174908                       # number of WriteLineReq miss ticks (Tick)
system.cpu.dcache.WriteLineReq.accesses::cpu.data          131                       # number of WriteLineReq accesses(hits+misses) (Count)
system.cpu.dcache.WriteLineReq.accesses::total          131                       # number of WriteLineReq accesses(hits+misses) (Count)
system.cpu.dcache.WriteLineReq.missRate::cpu.data            1                       # miss rate for WriteLineReq accesses (Ratio)
system.cpu.dcache.WriteLineReq.missRate::total            1                       # miss rate for WriteLineReq accesses (Ratio)
system.cpu.dcache.WriteLineReq.avgMissLatency::cpu.data 31869.526718                       # average WriteLineReq miss latency ((Tick/Count))
system.cpu.dcache.WriteLineReq.avgMissLatency::total 31869.526718                       # average WriteLineReq miss latency ((Tick/Count))
system.cpu.dcache.WriteLineReq.mshrMisses::cpu.data          131                       # number of WriteLineReq MSHR misses (Count)
system.cpu.dcache.WriteLineReq.mshrMisses::total          131                       # number of WriteLineReq MSHR misses (Count)
system.cpu.dcache.WriteLineReq.mshrMissLatency::cpu.data      4043908                       # number of WriteLineReq MSHR miss ticks (Tick)
system.cpu.dcache.WriteLineReq.mshrMissLatency::total      4043908                       # number of WriteLineReq MSHR miss ticks (Tick)
system.cpu.dcache.WriteLineReq.mshrMissRate::cpu.data            1                       # mshr miss rate for WriteLineReq accesses (Ratio)
system.cpu.dcache.WriteLineReq.mshrMissRate::total            1                       # mshr miss rate for WriteLineReq accesses (Ratio)
system.cpu.dcache.WriteLineReq.avgMshrMissLatency::cpu.data 30869.526718                       # average WriteLineReq mshr miss latency ((Tick/Count))
system.cpu.dcache.WriteLineReq.avgMshrMissLatency::total 30869.526718                       # average WriteLineReq mshr miss latency ((Tick/Count))
system.cpu.dcache.WriteReq.hits::cpu.data       970954                       # number of WriteReq hits (Count)
system.cpu.dcache.WriteReq.hits::total         970954                       # number of WriteReq hits (Count)
system.cpu.dcache.WriteReq.misses::cpu.data         5549                       # number of WriteReq misses (Count)
system.cpu.dcache.WriteReq.misses::total         5549                       # number of WriteReq misses (Count)
system.cpu.dcache.WriteReq.missLatency::cpu.data    345665086                       # number of WriteReq miss ticks (Tick)
system.cpu.dcache.WriteReq.missLatency::total    345665086                       # number of WriteReq miss ticks (Tick)
system.cpu.dcache.WriteReq.accesses::cpu.data       976503                       # number of WriteReq accesses(hits+misses) (Count)
system.cpu.dcache.WriteReq.accesses::total       976503                       # number of WriteReq accesses(hits+misses) (Count)
system.cpu.dcache.WriteReq.missRate::cpu.data     0.005683                       # miss rate for WriteReq accesses (Ratio)
system.cpu.dcache.WriteReq.missRate::total     0.005683                       # miss rate for WriteReq accesses (Ratio)
system.cpu.dcache.WriteReq.avgMissLatency::cpu.data 62293.221481                       # average WriteReq miss latency ((Tick/Count))
system.cpu.dcache.WriteReq.avgMissLatency::total 62293.221481                       # average WriteReq miss latency ((Tick/Count))
system.cpu.dcache.WriteReq.mshrHits::cpu.data         3427                       # number of WriteReq MSHR hits (Count)
system.cpu.dcache.WriteReq.mshrHits::total         3427                       # number of WriteReq MSHR hits (Count)
system.cpu.dcache.WriteReq.mshrMisses::cpu.data         2122                       # number of WriteReq MSHR misses (Count)
system.cpu.dcache.WriteReq.mshrMisses::total         2122                       # number of WriteReq MSHR misses (Count)
system.cpu.dcache.WriteReq.mshrMissLatency::cpu.data    132338296                       # number of WriteReq MSHR miss ticks (Tick)
system.cpu.dcache.WriteReq.mshrMissLatency::total    132338296                       # number of WriteReq MSHR miss ticks (Tick)
system.cpu.dcache.WriteReq.mshrMissRate::cpu.data     0.002173                       # mshr miss rate for WriteReq accesses (Ratio)
system.cpu.dcache.WriteReq.mshrMissRate::total     0.002173                       # mshr miss rate for WriteReq accesses (Ratio)
system.cpu.dcache.WriteReq.avgMshrMissLatency::cpu.data 62364.889727                       # average WriteReq mshr miss latency ((Tick/Count))
system.cpu.dcache.WriteReq.avgMshrMissLatency::total 62364.889727                       # average WriteReq mshr miss latency ((Tick/Count))
system.cpu.dcache.power_state.pwrStateResidencyTicks::UNDEFINED   8452652000                       # Cumulative time (in ticks) in various power states (Tick)
system.cpu.dcache.tags.tagsInUse          1019.565859                       # Average ticks per tags in use ((Tick/Count))
system.cpu.dcache.tags.totalRefs              4642097                       # Total number of references to valid blocks. (Count)
system.cpu.dcache.tags.sampledRefs              90896                       # Sample count of references to valid blocks. (Count)
system.cpu.dcache.tags.avgRefs              51.070421                       # Average number of references to valid blocks. ((Count/Count))
system.cpu.dcache.tags.warmupTick              253500                       # The tick when the warmup percentage was hit. (Tick)
system.cpu.dcache.tags.occupancies::cpu.data  1019.565859                       # Average occupied blocks per tick, per requestor ((Count/Tick))
system.cpu.dcache.tags.avgOccs::cpu.data     0.995670                       # Average percentage of cache occupancy ((Ratio/Tick))
system.cpu.dcache.tags.avgOccs::total        0.995670                       # Average percentage of cache occupancy ((Ratio/Tick))
system.cpu.dcache.tags.occupanciesTaskId::1024         1024                       # Occupied blocks per task id (Count)
system.cpu.dcache.tags.ageTaskId_1024::0           96                       # Occupied blocks per task id, per block age (Count)
system.cpu.dcache.tags.ageTaskId_1024::1          811                       # Occupied blocks per task id, per block age (Count)
system.cpu.dcache.tags.ageTaskId_1024::2          115                       # Occupied blocks per task id, per block age (Count)
system.cpu.dcache.tags.ageTaskId_1024::3            2                       # Occupied blocks per task id, per block age (Count)
system.cpu.dcache.tags.ratioOccsTaskId::1024            1                       # Ratio of occupied blocks and all blocks, per task id (Ratio)
system.cpu.dcache.tags.tagAccesses           19062188                       # Number of tag accesses (Count)
system.cpu.dcache.tags.dataAccesses          19062188                       # Number of data accesses (Count)
system.cpu.dcache.tags.power_state.pwrStateResidencyTicks::UNDEFINED   8452652000                       # Cumulative time (in ticks) in various power states (Tick)
system.cpu.decode.idleCycles                   977067                       # Number of cycles decode is idle (Cycle)
system.cpu.decode.blockedCycles              12382063                       # Number of cycles decode is blocked (Cycle)
system.cpu.decode.runCycles                   2845396                       # Number of cycles decode is running (Cycle)
system.cpu.decode.unblockCycles                542903                       # Number of cycles decode is unblocking (Cycle)
system.cpu.decode.squashCycles                  18725                       # Number of cycles decode is squashing (Cycle)
system.cpu.decode.branchResolved               305306                       # Number of times decode resolved a branch (Count)
system.cpu.decode.branchMispred                   832                       # Number of times decode detected a branch misprediction (Count)
system.cpu.decode.decodedInsts               23844689                       # Number of instructions handled by decode (Count)
system.cpu.decode.squashedInsts                  2822                       # Number of squashed instructions handled by decode (Count)
system.cpu.fetch.icacheStallCycles            1525673                       # Number of cycles fetch is stalled on an Icache miss (Cycle)
system.cpu.fetch.insts                       21393231                       # Number of instructions fetch has processed (Count)
system.cpu.fetch.branches                     2576912                       # Number of branches that fetch encountered (Count)
system.cpu.fetch.predictedBranches             348212                       # Number of branches that fetch has predicted taken (Count)
system.cpu.fetch.cycles                      15214935                       # Number of cycles fetch has run and was not squashing or blocked (Cycle)
system.cpu.fetch.squashCycles                   39070                       # Number of cycles fetch has spent squashing (Cycle)
system.cpu.fetch.miscStallCycles                  801                       # Number of cycles fetch has spent waiting on interrupts, or bad addresses, or out of MSHRs (Cycle)
system.cpu.fetch.pendingTrapStallCycles          5181                       # Number of stall cycles due to pending traps (Cycle)
system.cpu.fetch.icacheWaitRetryStallCycles           29                       # Number of stall cycles due to full MSHR (Cycle)
system.cpu.fetch.cacheLines                   1477319                       # Number of cache lines fetched (Count)
system.cpu.fetch.icacheSquashes                  6964                       # Number of outstanding Icache misses that were squashed (Count)
system.cpu.fetch.nisnDist::samples           16766154                       # Number of instructions fetched each cycle (Total) (Count)
system.cpu.fetch.nisnDist::mean              1.435964                       # Number of instructions fetched each cycle (Total) (Count)
system.cpu.fetch.nisnDist::stdev             2.880624                       # Number of instructions fetched each cycle (Total) (Count)
system.cpu.fetch.nisnDist::underflows               0      0.00%      0.00% # Number of instructions fetched each cycle (Total) (Count)
system.cpu.fetch.nisnDist::0                 12905049     76.97%     76.97% # Number of instructions fetched each cycle (Total) (Count)
system.cpu.fetch.nisnDist::1                    61941      0.37%     77.34% # Number of instructions fetched each cycle (Total) (Count)
system.cpu.fetch.nisnDist::2                   639562      3.81%     81.15% # Number of instructions fetched each cycle (Total) (Count)
system.cpu.fetch.nisnDist::3                   113248      0.68%     81.83% # Number of instructions fetched each cycle (Total) (Count)
system.cpu.fetch.nisnDist::4                   294598      1.76%     83.59% # Number of instructions fetched each cycle (Total) (Count)
system.cpu.fetch.nisnDist::5                   165638      0.99%     84.58% # Number of instructions fetched each cycle (Total) (Count)
system.cpu.fetch.nisnDist::6                   101368      0.60%     85.18% # Number of instructions fetched each cycle (Total) (Count)
system.cpu.fetch.nisnDist::7                    98002      0.58%     85.76% # Number of instructions fetched each cycle (Total) (Count)
system.cpu.fetch.nisnDist::8                  2386748     14.24%    100.00% # Number of instructions fetched each cycle (Total) (Count)
system.cpu.fetch.nisnDist::overflows                0      0.00%    100.00% # Number of instructions fetched each cycle (Total) (Count)
system.cpu.fetch.nisnDist::min_value                0                       # Number of instructions fetched each cycle (Total) (Count)
system.cpu.fetch.nisnDist::max_value                8                       # Number of instructions fetched each cycle (Total) (Count)
system.cpu.fetch.nisnDist::total             16766154                       # Number of instructions fetched each cycle (Total) (Count)
system.cpu.fetch.branchRate                  0.152432                       # Number of branch fetches per cycle (Ratio)
system.cpu.fetch.rate                        1.265474                       # Number of inst fetches per cycle ((Count/Cycle))
system.cpu.icache.demandHits::cpu.inst        1474690                       # number of demand (read+write) hits (Count)
system.cpu.icache.demandHits::total           1474690                       # number of demand (read+write) hits (Count)
system.cpu.icache.overallHits::cpu.inst       1474690                       # number of overall hits (Count)
system.cpu.icache.overallHits::total          1474690                       # number of overall hits (Count)
system.cpu.icache.demandMisses::cpu.inst         2629                       # number of demand (read+write) misses (Count)
system.cpu.icache.demandMisses::total            2629                       # number of demand (read+write) misses (Count)
system.cpu.icache.overallMisses::cpu.inst         2629                       # number of overall misses (Count)
system.cpu.icache.overallMisses::total           2629                       # number of overall misses (Count)
system.cpu.icache.demandMissLatency::cpu.inst    175428998                       # number of demand (read+write) miss ticks (Tick)
system.cpu.icache.demandMissLatency::total    175428998                       # number of demand (read+write) miss ticks (Tick)
system.cpu.icache.overallMissLatency::cpu.inst    175428998                       # number of overall miss ticks (Tick)
system.cpu.icache.overallMissLatency::total    175428998                       # number of overall miss ticks (Tick)
system.cpu.icache.demandAccesses::cpu.inst      1477319                       # number of demand (read+write) accesses (Count)
system.cpu.icache.demandAccesses::total       1477319                       # number of demand (read+write) accesses (Count)
system.cpu.icache.overallAccesses::cpu.inst      1477319                       # number of overall (read+write) accesses (Count)
system.cpu.icache.overallAccesses::total      1477319                       # number of overall (read+write) accesses (Count)
system.cpu.icache.demandMissRate::cpu.inst     0.001780                       # miss rate for demand accesses (Ratio)
system.cpu.icache.demandMissRate::total      0.001780                       # miss rate for demand accesses (Ratio)
system.cpu.icache.overallMissRate::cpu.inst     0.001780                       # miss rate for overall accesses (Ratio)
system.cpu.icache.overallMissRate::total     0.001780                       # miss rate for overall accesses (Ratio)
system.cpu.icache.demandAvgMissLatency::cpu.inst 66728.413085                       # average overall miss latency in ticks ((Tick/Count))
system.cpu.icache.demandAvgMissLatency::total 66728.413085                       # average overall miss latency in ticks ((Tick/Count))
system.cpu.icache.overallAvgMissLatency::cpu.inst 66728.413085                       # average overall miss latency ((Tick/Count))
system.cpu.icache.overallAvgMissLatency::total 66728.413085                       # average overall miss latency ((Tick/Count))
system.cpu.icache.blockedCycles::no_mshrs          598                       # number of cycles access was blocked (Cycle)
system.cpu.icache.blockedCycles::no_targets            0                       # number of cycles access was blocked (Cycle)
system.cpu.icache.blockedCauses::no_mshrs           12                       # number of times access was blocked (Count)
system.cpu.icache.blockedCauses::no_targets            0                       # number of times access was blocked (Count)
system.cpu.icache.avgBlocked::no_mshrs      49.833333                       # average number of cycles each access was blocked ((Cycle/Count))
system.cpu.icache.avgBlocked::no_targets          nan                       # average number of cycles each access was blocked ((Cycle/Count))
system.cpu.icache.writebacks::writebacks         1800                       # number of writebacks (Count)
system.cpu.icache.writebacks::total              1800                       # number of writebacks (Count)
system.cpu.icache.demandMshrHits::cpu.inst          572                       # number of demand (read+write) MSHR hits (Count)
system.cpu.icache.demandMshrHits::total           572                       # number of demand (read+write) MSHR hits (Count)
system.cpu.icache.overallMshrHits::cpu.inst          572                       # number of overall MSHR hits (Count)
system.cpu.icache.overallMshrHits::total          572                       # number of overall MSHR hits (Count)
system.cpu.icache.demandMshrMisses::cpu.inst         2057                       # number of demand (read+write) MSHR misses (Count)
system.cpu.icache.demandMshrMisses::total         2057                       # number of demand (read+write) MSHR misses (Count)
system.cpu.icache.overallMshrMisses::cpu.inst         2057                       # number of overall MSHR misses (Count)
system.cpu.icache.overallMshrMisses::total         2057                       # number of overall MSHR misses (Count)
system.cpu.icache.demandMshrMissLatency::cpu.inst    138836499                       # number of demand (read+write) MSHR miss ticks (Tick)
system.cpu.icache.demandMshrMissLatency::total    138836499                       # number of demand (read+write) MSHR miss ticks (Tick)
system.cpu.icache.overallMshrMissLatency::cpu.inst    138836499                       # number of overall MSHR miss ticks (Tick)
system.cpu.icache.overallMshrMissLatency::total    138836499                       # number of overall MSHR miss ticks (Tick)
system.cpu.icache.demandMshrMissRate::cpu.inst     0.001392                       # mshr miss ratio for demand accesses (Ratio)
system.cpu.icache.demandMshrMissRate::total     0.001392                       # mshr miss ratio for demand accesses (Ratio)
system.cpu.icache.overallMshrMissRate::cpu.inst     0.001392                       # mshr miss ratio for overall accesses (Ratio)
system.cpu.icache.overallMshrMissRate::total     0.001392                       # mshr miss ratio for overall accesses (Ratio)
system.cpu.icache.demandAvgMshrMissLatency::cpu.inst 67494.651920                       # average overall mshr miss latency ((Tick/Count))
system.cpu.icache.demandAvgMshrMissLatency::total 67494.651920                       # average overall mshr miss latency ((Tick/Count))
system.cpu.icache.overallAvgMshrMissLatency::cpu.inst 67494.651920                       # average overall mshr miss latency ((Tick/Count))
system.cpu.icache.overallAvgMshrMissLatency::total 67494.651920                       # average overall mshr miss latency ((Tick/Count))
system.cpu.icache.replacements                   1800                       # number of replacements (Count)
system.cpu.icache.ReadReq.hits::cpu.inst      1474690                       # number of ReadReq hits (Count)
system.cpu.icache.ReadReq.hits::total         1474690                       # number of ReadReq hits (Count)
system.cpu.icache.ReadReq.misses::cpu.inst         2629                       # number of ReadReq misses (Count)
system.cpu.icache.ReadReq.misses::total          2629                       # number of ReadReq misses (Count)
system.cpu.icache.ReadReq.missLatency::cpu.inst    175428998                       # number of ReadReq miss ticks (Tick)
system.cpu.icache.ReadReq.missLatency::total    175428998                       # number of ReadReq miss ticks (Tick)
system.cpu.icache.ReadReq.accesses::cpu.inst      1477319                       # number of ReadReq accesses(hits+misses) (Count)
system.cpu.icache.ReadReq.accesses::total      1477319                       # number of ReadReq accesses(hits+misses) (Count)
system.cpu.icache.ReadReq.missRate::cpu.inst     0.001780                       # miss rate for ReadReq accesses (Ratio)
system.cpu.icache.ReadReq.missRate::total     0.001780                       # miss rate for ReadReq accesses (Ratio)
system.cpu.icache.ReadReq.avgMissLatency::cpu.inst 66728.413085                       # average ReadReq miss latency ((Tick/Count))
system.cpu.icache.ReadReq.avgMissLatency::total 66728.413085                       # average ReadReq miss latency ((Tick/Count))
system.cpu.icache.ReadReq.mshrHits::cpu.inst          572                       # number of ReadReq MSHR hits (Count)
system.cpu.icache.ReadReq.mshrHits::total          572                       # number of ReadReq MSHR hits (Count)
system.cpu.icache.ReadReq.mshrMisses::cpu.inst         2057                       # number of ReadReq MSHR misses (Count)
system.cpu.icache.ReadReq.mshrMisses::total         2057                       # number of ReadReq MSHR misses (Count)
system.cpu.icache.ReadReq.mshrMissLatency::cpu.inst    138836499                       # number of ReadReq MSHR miss ticks (Tick)
system.cpu.icache.ReadReq.mshrMissLatency::total    138836499                       # number of ReadReq MSHR miss ticks (Tick)
system.cpu.icache.ReadReq.mshrMissRate::cpu.inst     0.001392                       # mshr miss rate for ReadReq accesses (Ratio)
system.cpu.icache.ReadReq.mshrMissRate::total     0.001392                       # mshr miss rate for ReadReq accesses (Ratio)
system.cpu.icache.ReadReq.avgMshrMissLatency::cpu.inst 67494.651920                       # average ReadReq mshr miss latency ((Tick/Count))
system.cpu.icache.ReadReq.avgMshrMissLatency::total 67494.651920                       # average ReadReq mshr miss latency ((Tick/Count))
system.cpu.icache.power_state.pwrStateResidencyTicks::UNDEFINED   8452652000                       # Cumulative time (in ticks) in various power states (Tick)
system.cpu.icache.tags.tagsInUse           255.533156                       # Average ticks per tags in use ((Tick/Count))
system.cpu.icache.tags.totalRefs              1476746                       # Total number of references to valid blocks. (Count)
system.cpu.icache.tags.sampledRefs               2056                       # Sample count of references to valid blocks. (Count)
system.cpu.icache.tags.avgRefs             718.261673                       # Average number of references to valid blocks. ((Count/Count))
system.cpu.icache.tags.warmupTick               87500                       # The tick when the warmup percentage was hit. (Tick)
system.cpu.icache.tags.occupancies::cpu.inst   255.533156                       # Average occupied blocks per tick, per requestor ((Count/Tick))
system.cpu.icache.tags.avgOccs::cpu.inst     0.998176                       # Average percentage of cache occupancy ((Ratio/Tick))
system.cpu.icache.tags.avgOccs::total        0.998176                       # Average percentage of cache occupancy ((Ratio/Tick))
system.cpu.icache.tags.occupanciesTaskId::1024          256                       # Occupied blocks per task id (Count)
system.cpu.icache.tags.ageTaskId_1024::0           77                       # Occupied blocks per task id, per block age (Count)
system.cpu.icache.tags.ageTaskId_1024::1           99                       # Occupied blocks per task id, per block age (Count)
system.cpu.icache.tags.ageTaskId_1024::3           80                       # Occupied blocks per task id, per block age (Count)
system.cpu.icache.tags.ratioOccsTaskId::1024            1                       # Ratio of occupied blocks and all blocks, per task id (Ratio)
system.cpu.icache.tags.tagAccesses            5911332                       # Number of tag accesses (Count)
system.cpu.icache.tags.dataAccesses           5911332                       # Number of data accesses (Count)
system.cpu.icache.tags.power_state.pwrStateResidencyTicks::UNDEFINED   8452652000                       # Cumulative time (in ticks) in various power states (Tick)
system.cpu.iew.idleCycles                           0                       # Number of cycles IEW is idle (Cycle)
system.cpu.iew.squashCycles                     18725                       # Number of cycles IEW is squashing (Cycle)
system.cpu.iew.blockCycles                    7043903                       # Number of cycles IEW is blocking (Cycle)
system.cpu.iew.unblockCycles                   202706                       # Number of cycles IEW is unblocking (Cycle)
system.cpu.iew.dispatchedInsts               23666243                       # Number of instructions dispatched to IQ (Count)
system.cpu.iew.dispSquashedInsts                 2128                       # Number of squashed instructions skipped by dispatch (Count)
system.cpu.iew.dispLoadInsts                  4108358                       # Number of dispatched load instructions (Count)
system.cpu.iew.dispStoreInsts                 1016750                       # Number of dispatched store instructions (Count)
system.cpu.iew.dispNonSpecInsts                   400                       # Number of dispatched non-speculative instructions (Count)
system.cpu.iew.iqFullEvents                    153049                       # Number of times the IQ has become full, causing a stall (Count)
system.cpu.iew.lsqFullEvents                    27279                       # Number of times the LSQ has become full, causing a stall (Count)
system.cpu.iew.memOrderViolationEvents            251                       # Number of memory order violations (Count)
system.cpu.iew.predictedTakenIncorrect           8628                       # Number of branches that were predicted taken incorrectly (Count)
system.cpu.iew.predictedNotTakenIncorrect        11787                       # Number of branches that were predicted not taken incorrectly (Count)
system.cpu.iew.branchMispredicts                20415                       # Number of branch mispredicts detected at execute (Count)
system.cpu.iew.instsToCommit                 23353132                       # Cumulative count of insts sent to commit (Count)
system.cpu.iew.writebackCount                23342363                       # Cumulative count of insts written-back (Count)
system.cpu.iew.producerInst                  17387113                       # Number of instructions producing a value (Count)
system.cpu.iew.consumerInst                  27334490                       # Number of instructions consuming a value (Count)
system.cpu.iew.wbRate                        1.380771                       # Insts written-back per cycle ((Count/Cycle))
system.cpu.iew.wbFanout                      0.636087                       # Average fanout of values written-back ((Count/Count))
system.cpu.lsq0.forwLoads                      307062                       # Number of loads that had data forwarded from stores (Count)
system.cpu.lsq0.squashedLoads                  119782                       # Number of loads squashed (Count)
system.cpu.lsq0.ignoredResponses                   44                       # Number of memory responses ignored because the instruction is squashed (Count)
system.cpu.lsq0.memOrderViolation                 251                       # Number of memory ordering violations (Count)
system.cpu.lsq0.squashedStores                  40024                       # Number of stores squashed (Count)
system.cpu.lsq0.rescheduledLoads                 9307                       # Number of loads that were rescheduled (Count)
system.cpu.lsq0.blockedByCache                   2007                       # Number of times an access to memory failed due to the cache being blocked (Count)
system.cpu.lsq0.loadToUse::samples            3988576                       # Distribution of cycle latency between the first time a load is issued and its completion (Unspecified)
system.cpu.lsq0.loadToUse::mean             10.055571                       # Distribution of cycle latency between the first time a load is issued and its completion (Unspecified)
system.cpu.lsq0.loadToUse::stdev            35.331945                       # Distribution of cycle latency between the first time a load is issued and its completion (Unspecified)
system.cpu.lsq0.loadToUse::0-9                3810700     95.54%     95.54% # Distribution of cycle latency between the first time a load is issued and its completion (Unspecified)
system.cpu.lsq0.loadToUse::10-19                 2835      0.07%     95.61% # Distribution of cycle latency between the first time a load is issued and its completion (Unspecified)
system.cpu.lsq0.loadToUse::20-29                 6789      0.17%     95.78% # Distribution of cycle latency between the first time a load is issued and its completion (Unspecified)
system.cpu.lsq0.loadToUse::30-39                 1089      0.03%     95.81% # Distribution of cycle latency between the first time a load is issued and its completion (Unspecified)
system.cpu.lsq0.loadToUse::40-49                  880      0.02%     95.83% # Distribution of cycle latency between the first time a load is issued and its completion (Unspecified)
[...]
system.mem_ctrls.dram.perBankWrBursts::10          985                       # Per bank write bursts (Count)
system.mem_ctrls.dram.perBankWrBursts::11         2372                       # Per bank write bursts (Count)
system.mem_ctrls.dram.perBankWrBursts::12         2007                       # Per bank write bursts (Count)
system.mem_ctrls.dram.perBankWrBursts::13          606                       # Per bank write bursts (Count)
system.mem_ctrls.dram.perBankWrBursts::14         2376                       # Per bank write bursts (Count)
system.mem_ctrls.dram.perBankWrBursts::15         1660                       # Per bank write bursts (Count)
system.mem_ctrls.dram.totQLat               600210250                       # Total ticks spent queuing (Tick)
system.mem_ctrls.dram.totBusLat             439895000                       # Total ticks spent in databus transfers (Tick)
system.mem_ctrls.dram.totMemAccLat         2249816500                       # Total ticks spent from burst creation until serviced by the DRAM (Tick)
system.mem_ctrls.dram.avgQLat                 6822.20                       # Average queueing delay per DRAM burst ((Tick/Count))
system.mem_ctrls.dram.avgBusLat               5000.00                       # Average bus latency per DRAM burst ((Tick/Count))
system.mem_ctrls.dram.avgMemAccLat           25572.20                       # Average memory access latency per DRAM burst ((Tick/Count))
system.mem_ctrls.dram.readRowHits               77830                       # Number of row buffer hits during reads (Count)
system.mem_ctrls.dram.writeRowHits              22473                       # Number of row buffer hits during writes (Count)
system.mem_ctrls.dram.readRowHitRate            88.46                       # Row buffer hit rate for reads (Ratio)
system.mem_ctrls.dram.writeRowHitRate           88.29                       # Row buffer hit rate for writes (Ratio)
system.mem_ctrls.dram.bytesPerActivate::samples        13116                       # Bytes accessed per row activation (Byte)
system.mem_ctrls.dram.bytesPerActivate::mean   553.285758                       # Bytes accessed per row activation (Byte)
system.mem_ctrls.dram.bytesPerActivate::gmean   352.934315                       # Bytes accessed per row activation (Byte)
system.mem_ctrls.dram.bytesPerActivate::stdev   402.553686                       # Bytes accessed per row activation (Byte)
system.mem_ctrls.dram.bytesPerActivate::0-127         2627     20.03%     20.03% # Bytes accessed per row activation (Byte)
system.mem_ctrls.dram.bytesPerActivate::128-255         2003     15.27%     35.30% # Bytes accessed per row activation (Byte)
system.mem_ctrls.dram.bytesPerActivate::256-383          937      7.14%     42.44% # Bytes accessed per row activation (Byte)
system.mem_ctrls.dram.bytesPerActivate::384-511          760      5.79%     48.24% # Bytes accessed per row activation (Byte)
system.mem_ctrls.dram.bytesPerActivate::512-639          760      5.79%     54.03% # Bytes accessed per row activation (Byte)
system.mem_ctrls.dram.bytesPerActivate::640-767          614      4.68%     58.71% # Bytes accessed per row activation (Byte)
system.mem_ctrls.dram.bytesPerActivate::768-895          548      4.18%     62.89% # Bytes accessed per row activation (Byte)
system.mem_ctrls.dram.bytesPerActivate::896-1023          427      3.26%     66.15% # Bytes accessed per row activation (Byte)
system.mem_ctrls.dram.bytesPerActivate::1024-1151         4440     33.85%    100.00% # Bytes accessed per row activation (Byte)
system.mem_ctrls.dram.bytesPerActivate::total        13116                       # Bytes accessed per row activation (Byte)
system.mem_ctrls.dram.bytesRead               5630656                       # Total bytes read (Byte)
system.mem_ctrls.dram.bytesWritten            1628992                       # Total bytes written (Byte)
system.mem_ctrls.dram.avgRdBW              666.140757                       # Average DRAM read bandwidth in MiBytes/s ((Byte/Second))
system.mem_ctrls.dram.avgWrBW              192.719634                       # Average DRAM write bandwidth in MiBytes/s ((Byte/Second))
system.mem_ctrls.dram.peakBW                 12800.00                       # Theoretical peak bandwidth in MiByte/s ((Byte/Second))
system.mem_ctrls.dram.busUtil                    6.71                       # Data bus utilization in percentage (Ratio)
system.mem_ctrls.dram.busUtilRead                5.20                       # Data bus utilization in percentage for reads (Ratio)
system.mem_ctrls.dram.busUtilWrite               1.51                       # Data bus utilization in percentage for writes (Ratio)
system.mem_ctrls.dram.pageHitRate               88.43                       # Row buffer hit rate, read and write combined (Ratio)
system.mem_ctrls.dram.power_state.pwrStateResidencyTicks::UNDEFINED   8452652000                       # Cumulative time (in ticks) in various power states (Tick)
system.mem_ctrls.dram.rank0.actEnergy        44860620                       # Energy for activate commands per rank (pJ) (Joule)
system.mem_ctrls.dram.rank0.preEnergy        23817420                       # Energy for precharge commands per rank (pJ) (Joule)
system.mem_ctrls.dram.rank0.readEnergy      295538880                       # Energy for read commands per rank (pJ) (Joule)
system.mem_ctrls.dram.rank0.writeEnergy      60118740                       # Energy for write commands per rank (pJ) (Joule)
system.mem_ctrls.dram.rank0.refreshEnergy 666884400.000000                       # Energy for refresh commands per rank (pJ) (Joule)
system.mem_ctrls.dram.rank0.actBackEnergy   2586504390                       # Energy for active background per rank (pJ) (Joule)
system.mem_ctrls.dram.rank0.preBackEnergy   1067709600                       # Energy for precharge background per rank (pJ) (Joule)
system.mem_ctrls.dram.rank0.actPowerDownEnergy            0                       # Energy for active power-down per rank (pJ) (Joule)
system.mem_ctrls.dram.rank0.prePowerDownEnergy            0                       # Energy for precharge power-down per rank (pJ) (Joule)
system.mem_ctrls.dram.rank0.selfRefreshEnergy            0                       # Energy for self refresh per rank (pJ) (Joule)
system.mem_ctrls.dram.rank0.totalEnergy    4745434050                       # Total energy per rank (pJ) (Joule)
system.mem_ctrls.dram.rank0.averagePower   561.413631                       # Core power per rank (mW) (Watt)
system.mem_ctrls.dram.rank0.totalIdleTime            0                       # Total Idle time Per DRAM Rank (Tick)
system.mem_ctrls.dram.rank0.pwrStateTime::IDLE   2743258500                       # Time in different power states (Tick)
system.mem_ctrls.dram.rank0.pwrStateTime::REF    282100000                       # Time in different power states (Tick)
system.mem_ctrls.dram.rank0.pwrStateTime::SREF            0                       # Time in different power states (Tick)
system.mem_ctrls.dram.rank0.pwrStateTime::PRE_PDN            0                       # Time in different power states (Tick)
system.mem_ctrls.dram.rank0.pwrStateTime::ACT   5427293500                       # Time in different power states (Tick)
system.mem_ctrls.dram.rank0.pwrStateTime::ACT_PDN            0                       # Time in different power states (Tick)
system.mem_ctrls.dram.rank1.actEnergy        48880440                       # Energy for activate commands per rank (pJ) (Joule)
system.mem_ctrls.dram.rank1.preEnergy        25957800                       # Energy for precharge commands per rank (pJ) (Joule)
system.mem_ctrls.dram.rank1.readEnergy      332631180                       # Energy for read commands per rank (pJ) (Joule)
system.mem_ctrls.dram.rank1.writeEnergy      72745920                       # Energy for write commands per rank (pJ) (Joule)
system.mem_ctrls.dram.rank1.refreshEnergy 666884400.000000                       # Energy for refresh commands per rank (pJ) (Joule)
system.mem_ctrls.dram.rank1.actBackEnergy   2809205670                       # Energy for active background per rank (pJ) (Joule)
system.mem_ctrls.dram.rank1.preBackEnergy    880171680                       # Energy for precharge background per rank (pJ) (Joule)
system.mem_ctrls.dram.rank1.actPowerDownEnergy            0                       # Energy for active power-down per rank (pJ) (Joule)
system.mem_ctrls.dram.rank1.prePowerDownEnergy            0                       # Energy for precharge power-down per rank (pJ) (Joule)
system.mem_ctrls.dram.rank1.selfRefreshEnergy            0                       # Energy for self refresh per rank (pJ) (Joule)
system.mem_ctrls.dram.rank1.totalEnergy    4836477090                       # Total energy per rank (pJ) (Joule)
system.mem_ctrls.dram.rank1.averagePower   572.184575                       # Core power per rank (mW) (Watt)
system.mem_ctrls.dram.rank1.totalIdleTime            0                       # Total Idle time Per DRAM Rank (Tick)
system.mem_ctrls.dram.rank1.pwrStateTime::IDLE   2253151250                       # Time in different power states (Tick)
system.mem_ctrls.dram.rank1.pwrStateTime::REF    282100000                       # Time in different power states (Tick)
system.mem_ctrls.dram.rank1.pwrStateTime::SREF            0                       # Time in different power states (Tick)
system.mem_ctrls.dram.rank1.pwrStateTime::PRE_PDN            0                       # Time in different power states (Tick)
system.mem_ctrls.dram.rank1.pwrStateTime::ACT   5917400750                       # Time in different power states (Tick)
system.mem_ctrls.dram.rank1.pwrStateTime::ACT_PDN            0                       # Time in different power states (Tick)
system.mem_ctrls.power_state.pwrStateResidencyTicks::UNDEFINED   8452652000                       # Cumulative time (in ticks) in various power states (Tick)
system.membus.transDist::ReadResp               86521                       # Transaction distribution (Count)
system.membus.transDist::WritebackDirty         25478                       # Transaction distribution (Count)
system.membus.transDist::CleanEvict             58478                       # Transaction distribution (Count)
system.membus.transDist::ReadExReq               1481                       # Transaction distribution (Count)
system.membus.transDist::ReadExResp              1481                       # Transaction distribution (Count)
system.membus.transDist::ReadSharedReq          86521                       # Transaction distribution (Count)
system.membus.transDist::InvalidateReq            139                       # Transaction distribution (Count)
system.membus.pktCount_system.l2.mem_side_port::system.mem_ctrls.port       260099                       # Packet count per connected requestor and responder (Count)
system.membus.pktCount::total                  260099                       # Packet count per connected requestor and responder (Count)
system.membus.pktSize_system.l2.mem_side_port::system.mem_ctrls.port      7262720                       # Cumulative packet size per connected requestor and responder (Byte)
system.membus.pktSize::total                  7262720                       # Cumulative packet size per connected requestor and responder (Byte)
system.membus.snoops                                0                       # Total snoops (Count)
system.membus.snoopTraffic                          0                       # Total snoop traffic (Byte)
system.membus.snoopFanout::samples              88141                       # Request fanout histogram (Count)
system.membus.snoopFanout::mean                     0                       # Request fanout histogram (Count)
system.membus.snoopFanout::stdev                    0                       # Request fanout histogram (Count)
system.membus.snoopFanout::underflows               0      0.00%      0.00% # Request fanout histogram (Count)
system.membus.snoopFanout::0                    88141    100.00%    100.00% # Request fanout histogram (Count)
system.membus.snoopFanout::1                        0      0.00%    100.00% # Request fanout histogram (Count)
system.membus.snoopFanout::overflows                0      0.00%    100.00% # Request fanout histogram (Count)
system.membus.snoopFanout::min_value                0                       # Request fanout histogram (Count)
system.membus.snoopFanout::max_value                0                       # Request fanout histogram (Count)
system.membus.snoopFanout::total                88141                       # Request fanout histogram (Count)
system.membus.power_state.pwrStateResidencyTicks::UNDEFINED   8452652000                       # Cumulative time (in ticks) in various power states (Tick)
system.membus.reqLayer0.occupancy           295634500                       # Layer occupancy (ticks) (Tick)
system.membus.reqLayer0.utilization               0.0                       # Layer utilization (Ratio)
system.membus.respLayer1.occupancy          464707500                       # Layer occupancy (ticks) (Tick)
system.membus.respLayer1.utilization              0.1                       # Layer utilization (Ratio)
system.membus.snoop_filter.totRequests         172097                       # Total number of requests made to the snoop filter. (Count)
system.membus.snoop_filter.hitSingleRequests        83956                       # Number of requests hitting in the snoop filter with a single holder of the requested data. (Count)
system.membus.snoop_filter.hitMultiRequests            0                       # Number of requests hitting in the snoop filter with multiple (>1) holders of the requested data. (Count)
system.membus.snoop_filter.totSnoops                0                       # Total number of snoops made to the snoop filter. (Count)
system.membus.snoop_filter.hitSingleSnoops            0                       # Number of snoops hitting in the snoop filter with a single holder of the requested data. (Count)
system.membus.snoop_filter.hitMultiSnoops            0                       # Number of snoops hitting in the snoop filter with multiple (>1) holders of the requested data. (Count)
system.tol2bus.transDist::ReadResp              90693                       # Transaction distribution (Count)
system.tol2bus.transDist::WritebackDirty        52772                       # Transaction distribution (Count)
system.tol2bus.transDist::WritebackClean         1800                       # Transaction distribution (Count)
system.tol2bus.transDist::CleanEvict           121690                       # Transaction distribution (Count)
system.tol2bus.transDist::ReadExReq              2120                       # Transaction distribution (Count)
system.tol2bus.transDist::ReadExResp             2120                       # Transaction distribution (Count)
system.tol2bus.transDist::ReadCleanReq           2057                       # Transaction distribution (Count)
system.tol2bus.transDist::ReadSharedReq         88637                       # Transaction distribution (Count)
system.tol2bus.transDist::InvalidateReq           139                       # Transaction distribution (Count)
system.tol2bus.transDist::InvalidateResp          139                       # Transaction distribution (Count)
system.tol2bus.pktCount_system.cpu.icache.mem_side_port::system.l2.cpu_side_port         5913                       # Packet count per connected requestor and responder (Count)
system.tol2bus.pktCount_system.cpu.dcache.mem_side_port::system.l2.cpu_side_port       271664                       # Packet count per connected requestor and responder (Count)
system.tol2bus.pktCount::total                 277577                       # Packet count per connected requestor and responder (Count)
system.tol2bus.pktSize_system.cpu.icache.mem_side_port::system.l2.cpu_side_port       246784                       # Cumulative packet size per connected requestor and responder (Byte)
system.tol2bus.pktSize_system.cpu.dcache.mem_side_port::system.l2.cpu_side_port      7555200                       # Cumulative packet size per connected requestor and responder (Byte)
system.tol2bus.pktSize::total                 7801984                       # Cumulative packet size per connected requestor and responder (Byte)
system.tol2bus.snoops                           84590                       # Total snoops (Count)
system.tol2bus.snoopTraffic                   1630656                       # Total snoop traffic (Byte)
system.tol2bus.snoopFanout::samples            177543                       # Request fanout histogram (Count)
system.tol2bus.snoopFanout::mean             0.004754                       # Request fanout histogram (Count)
system.tol2bus.snoopFanout::stdev            0.068784                       # Request fanout histogram (Count)
system.tol2bus.snoopFanout::underflows              0      0.00%      0.00% # Request fanout histogram (Count)
system.tol2bus.snoopFanout::0                  176699     99.52%     99.52% # Request fanout histogram (Count)
system.tol2bus.snoopFanout::1                     844      0.48%    100.00% # Request fanout histogram (Count)
system.tol2bus.snoopFanout::2                       0      0.00%    100.00% # Request fanout histogram (Count)
system.tol2bus.snoopFanout::overflows               0      0.00%    100.00% # Request fanout histogram (Count)
system.tol2bus.snoopFanout::min_value               0                       # Request fanout histogram (Count)
system.tol2bus.snoopFanout::max_value               1                       # Request fanout histogram (Count)
system.tol2bus.snoopFanout::total              177543                       # Request fanout histogram (Count)
system.tol2bus.power_state.pwrStateResidencyTicks::UNDEFINED   8452652000                       # Cumulative time (in ticks) in various power states (Tick)
system.tol2bus.reqLayer0.occupancy          121405500                       # Layer occupancy (ticks) (Tick)
system.tol2bus.reqLayer0.utilization              0.0                       # Layer utilization (Ratio)
system.tol2bus.respLayer0.occupancy           3084499                       # Layer occupancy (ticks) (Tick)
system.tol2bus.respLayer0.utilization             0.0                       # Layer utilization (Ratio)
system.tol2bus.respLayer1.occupancy         136205000                       # Layer occupancy (ticks) (Tick)
system.tol2bus.respLayer1.utilization             0.0                       # Layer utilization (Ratio)
system.tol2bus.snoop_filter.totRequests        184625                       # Total number of requests made to the snoop filter. (Count)
system.tol2bus.snoop_filter.hitSingleRequests        91672                       # Number of requests hitting in the snoop filter with a single holder of the requested data. (Count)
system.tol2bus.snoop_filter.hitMultiRequests            2                       # Number of requests hitting in the snoop filter with multiple (>1) holders of the requested data. (Count)
system.tol2bus.snoop_filter.totSnoops             842                       # Total number of snoops made to the snoop filter. (Count)
system.tol2bus.snoop_filter.hitSingleSnoops          842                       # Number of snoops hitting in the snoop filter with a single holder of the requested data. (Count)
system.tol2bus.snoop_filter.hitMultiSnoops            0                       # Number of snoops hitting in the snoop filter with multiple (>1) holders of the requested data. (Count)
system.voltage_domain.voltage                       1                       # Voltage in Volts (Volt)
system.workload.inst.arm                            0                       # number of arm instructions executed (Count)
system.workload.inst.quiesce                        0                       # number of quiesce instructions executed (Count)

---------- End Simulation Statistics   ----------
