
---------- Begin Simulation Statistics ----------
simSeconds                                   0.021320                       # Number of seconds simulated (Second)
simTicks                                  21319728000                       # Number of ticks simulated (Tick)
finalTick                                 21319728000                       # Number of ticks from beginning of simulation (restored from checkpoints and never reset) (Tick)
simFreq                                  1000000000000                       # The number of ticks per simulated second ((Tick/Second))
hostSeconds                                    155.35                       # Real time elapsed on the host (Second)
hostTickRate                                137238851                       # The number of ticks simulated per host second (ticks/s) ((Tick/Second))
hostMemory                                     681144                       # Number of bytes of host memory used (Byte)
simInsts                                     55122723                       # Number of instructions simulated (Count)
simOps                                       58205956                       # Number of ops (including micro ops) simulated (Count)
hostInstRate                                   354834                       # Simulator instruction rate (inst/s) ((Count/Second))
hostOpRate                                     374682                       # Simulator op (including micro ops) rate (op/s) ((Count/Second))
system.clk_domain.clock                          1000                       # Clock period in ticks (Tick)
system.cpu.numCycles                         42639457                       # Number of cpu cycles simulated (Cycle)
system.cpu.numWorkItemsStarted                      0                       # Number of work items this cpu started (Count)
system.cpu.numWorkItemsCompleted                    0                       # Number of work items this cpu completed (Count)
system.cpu.instsAdded                        58801988                       # Number of instructions added to the IQ (excludes non-spec) (Count)
system.cpu.nonSpecInstsAdded                      410                       # Number of non-speculative instructions added to the IQ (Count)
system.cpu.instsIssued                       58606514                       # Number of instructions issued (Count)
system.cpu.squashedInstsIssued                   1961                       # Number of squashed instructions issued (Count)
system.cpu.squashedInstsExamined               596441                       # Number of squashed instructions iterated over during squash; mainly for profiling (Count)
system.cpu.squashedOperandsExamined            502582                       # Number of squashed operands that are examined and possibly removed from graph (Count)
system.cpu.squashedNonSpecRemoved                 137                       # Number of squashed non-spec instructions that were removed (Count)
system.cpu.numIssuedDist::samples            42501736                       # Number of insts issued each cycle (Count)
system.cpu.numIssuedDist::mean               1.378920                       # Number of insts issued each cycle (Count)
system.cpu.numIssuedDist::stdev              2.509216                       # Number of insts issued each cycle (Count)
system.cpu.numIssuedDist::underflows                0      0.00%      0.00% # Number of insts issued each cycle (Count)
system.cpu.numIssuedDist::0                  30711634     72.26%     72.26% # Number of insts issued each cycle (Count)
system.cpu.numIssuedDist::1                   1195175      2.81%     75.07% # Number of insts issued each cycle (Count)
system.cpu.numIssuedDist::2                    963778      2.27%     77.34% # Number of insts issued each cycle (Count)
system.cpu.numIssuedDist::3                    298530      0.70%     78.04% # Number of insts issued each cycle (Count)
system.cpu.numIssuedDist::4                   2333861      5.49%     83.53% # Number of insts issued each cycle (Count)
system.cpu.numIssuedDist::5                   2457638      5.78%     89.32% # Number of insts issued each cycle (Count)
system.cpu.numIssuedDist::6                    863098      2.03%     91.35% # Number of insts issued each cycle (Count)
system.cpu.numIssuedDist::7                   1638205      3.85%     95.20% # Number of insts issued each cycle (Count)
system.cpu.numIssuedDist::8                   2039817      4.80%    100.00% # Number of insts issued each cycle (Count)
system.cpu.numIssuedDist::overflows                 0      0.00%    100.00% # Number of insts issued each cycle (Count)
system.cpu.numIssuedDist::min_value                 0                       # Number of insts issued each cycle (Count)
system.cpu.numIssuedDist::max_value                 8                       # Number of insts issued each cycle (Count)
system.cpu.numIssuedDist::total              42501736                       # Number of insts issued each cycle (Count)
system.cpu.statFuBusy::No_OpClass                   0      0.00%      0.00% # attempts to use FU when none available (Count)
system.cpu.statFuBusy::IntAlu                   20119      0.11%      0.11% # attempts to use FU when none available (Count)
system.cpu.statFuBusy::IntMult                      0      0.00%      0.11% # attempts to use FU when none available (Count)
system.cpu.statFuBusy::IntDiv                    1192      0.01%      0.12% # attempts to use FU when none available (Count)
system.cpu.statFuBusy::FloatAdd                     0      0.00%      0.12% # attempts to use FU when none available (Count)
system.cpu.statFuBusy::FloatCmp                     0      0.00%      0.12% # attempts to use FU when none available (Count)
system.cpu.statFuBusy::FloatCvt                     0      0.00%      0.12% # attempts to use FU when none available (Count)
system.cpu.statFuBusy::FloatMult                    0      0.00%      0.12% # attempts to use FU when none available (Count)
system.cpu.statFuBusy::FloatMultAcc                 0      0.00%      0.12% # attempts to use FU when none available (Count)
system.cpu.statFuBusy::FloatDiv                     0      0.00%      0.12% # attempts to use FU when none available (Count)
system.cpu.statFuBusy::FloatMisc                    0      0.00%      0.12% # attempts to use FU when none available (Count)
system.cpu.statFuBusy::FloatSqrt                    0      0.00%      0.12% # attempts to use FU when none available (Count)
system.cpu.statFuBusy::SimdAdd                6021070     32.84%     32.96% # attempts to use FU when none available (Count)
system.cpu.statFuBusy::SimdAddAcc                   0      0.00%     32.96% # attempts to use FU when none available (Count)
system.cpu.statFuBusy::SimdAlu                7834601     42.73%     75.69% # attempts to use FU when none available (Count)
system.cpu.statFuBusy::SimdCmp                     17      0.00%     75.69% # attempts to use FU when none available (Count)
system.cpu.statFuBusy::SimdCvt                      0      0.00%     75.69% # attempts to use FU when none available (Count)
system.cpu.statFuBusy::SimdMisc               4415462     24.08%     99.77% # attempts to use FU when none available (Count)
system.cpu.statFuBusy::SimdMult                     0      0.00%     99.77% # attempts to use FU when none available (Count)
system.cpu.statFuBusy::SimdMultAcc                  0      0.00%     99.77% # attempts to use FU when none available (Count)
system.cpu.statFuBusy::SimdShift                    0      0.00%     99.77% # attempts to use FU when none available (Count)
system.cpu.statFuBusy::SimdShiftAcc                 0      0.00%     99.77% # attempts to use FU when none available (Count)
system.cpu.statFuBusy::SimdDiv                      0      0.00%     99.77% # attempts to use FU when none available (Count)
system.cpu.statFuBusy::SimdSqrt                     0      0.00%     99.77% # attempts to use FU when none available (Count)
system.cpu.statFuBusy::SimdFloatAdd                 0      0.00%     99.77% # attempts to use FU when none available (Count)
system.cpu.statFuBusy::SimdFloatAlu                 0      0.00%     99.77% # attempts to use FU when none available (Count)
system.cpu.statFuBusy::SimdFloatCmp                 0      0.00%     99.77% # attempts to use FU when none available (Count)
system.cpu.statFuBusy::SimdFloatCvt                 0      0.00%     99.77% # attempts to use FU when none available (Count)
system.cpu.statFuBusy::SimdFloatDiv                 0      0.00%     99.77% # attempts to use FU when none available (Count)
system.cpu.statFuBusy::SimdFloatMisc                0      0.00%     99.77% # attempts to use FU when none available (Count)
system.cpu.statFuBusy::SimdFloatMult                0      0.00%     99.77% # attempts to use FU when none available (Count)
system.cpu.statFuBusy::SimdFloatMultAcc             0      0.00%     99.77% # attempts to use FU when none available (Count)
system.cpu.statFuBusy::SimdFloatSqrt                0      0.00%     99.77% # attempts to use FU when none available (Count)
system.cpu.statFuBusy::SimdReduceAdd                0      0.00%     99.77% # attempts to use FU when none available (Count)
system.cpu.statFuBusy::SimdReduceAlu                0      0.00%     99.77% # attempts to use FU when none available (Count)
system.cpu.statFuBusy::SimdReduceCmp                0      0.00%     99.77% # attempts to use FU when none available (Count)
system.cpu.statFuBusy::SimdFloatReduceAdd            0      0.00%     99.77% # attempts to use FU when none available (Count)
system.cpu.statFuBusy::SimdFloatReduceCmp            0      0.00%     99.77% # attempts to use FU when none available (Count)
system.cpu.statFuBusy::SimdAes                      0      0.00%     99.77% # attempts to use FU when none available (Count)
system.cpu.statFuBusy::SimdAesMix                   0      0.00%     99.77% # attempts to use FU when none available (Count)
system.cpu.statFuBusy::SimdSha1Hash                 0      0.00%     99.77% # attempts to use FU when none available (Count)
system.cpu.statFuBusy::SimdSha1Hash2                0      0.00%     99.77% # attempts to use FU when none available (Count)
system.cpu.statFuBusy::SimdSha256Hash               0      0.00%     99.77% # attempts to use FU when none available (Count)
system.cpu.statFuBusy::SimdSha256Hash2              0      0.00%     99.77% # attempts to use FU when none available (Count)
system.cpu.statFuBusy::SimdShaSigma2                0      0.00%     99.77% # attempts to use FU when none available (Count)
system.cpu.statFuBusy::SimdShaSigma3                0      0.00%     99.77% # attempts to use FU when none available (Count)
system.cpu.statFuBusy::SimdPredAlu                  0      0.00%     99.77% # attempts to use FU when none available (Count)
system.cpu.statFuBusy::MemRead                  27299      0.15%     99.92% # attempts to use FU when none available (Count)
system.cpu.statFuBusy::MemWrite                 14967      0.08%    100.00% # attempts to use FU when none available (Count)
system.cpu.statFuBusy::FloatMemRead                 0      0.00%    100.00% # attempts to use FU when none available (Count)
system.cpu.statFuBusy::FloatMemWrite                0      0.00%    100.00% # attempts to use FU when none available (Count)
system.cpu.statFuBusy::IprAccess                    0      0.00%    100.00% # attempts to use FU when none available (Count)
system.cpu.statFuBusy::InstPrefetch                 0      0.00%    100.00% # attempts to use FU when none available (Count)
system.cpu.statIssuedInstType_0::No_OpClass      1206140      2.06%      2.06% # Number of instructions issued per FU type, per thread (Count)
system.cpu.statIssuedInstType_0::IntAlu      16842374     28.74%     30.80% # Number of instructions issued per FU type, per thread (Count)
system.cpu.statIssuedInstType_0::IntMult         7627      0.01%     30.81% # Number of instructions issued per FU type, per thread (Count)
system.cpu.statIssuedInstType_0::IntDiv          2712      0.00%     30.81% # Number of instructions issued per FU type, per thread (Count)
system.cpu.statIssuedInstType_0::FloatAdd            0      0.00%     30.81% # Number of instructions issued per FU type, per thread (Count)
system.cpu.statIssuedInstType_0::FloatCmp            0      0.00%     30.81% # Number of instructions issued per FU type, per thread (Count)
system.cpu.statIssuedInstType_0::FloatCvt            0      0.00%     30.81% # Number of instructions issued per FU type, per thread (Count)
system.cpu.statIssuedInstType_0::FloatMult            0      0.00%     30.81% # Number of instructions issued per FU type, per thread (Count)
system.cpu.statIssuedInstType_0::FloatMultAcc            0      0.00%     30.81% # Number of instructions issued per FU type, per thread (Count)
system.cpu.statIssuedInstType_0::FloatDiv            0      0.00%     30.81% # Number of instructions issued per FU type, per thread (Count)
system.cpu.statIssuedInstType_0::FloatMisc            2      0.00%     30.81% # Number of instructions issued per FU type, per thread (Count)
system.cpu.statIssuedInstType_0::FloatSqrt            0      0.00%     30.81% # Number of instructions issued per FU type, per thread (Count)
system.cpu.statIssuedInstType_0::SimdAdd     12845162     21.92%     52.73% # Number of instructions issued per FU type, per thread (Count)
system.cpu.statIssuedInstType_0::SimdAddAcc            0      0.00%     52.73% # Number of instructions issued per FU type, per thread (Count)
system.cpu.statIssuedInstType_0::SimdAlu     13892570     23.70%     76.44% # Number of instructions issued per FU type, per thread (Count)
system.cpu.statIssuedInstType_0::SimdCmp          125      0.00%     76.44% # Number of instructions issued per FU type, per thread (Count)
system.cpu.statIssuedInstType_0::SimdCvt            0      0.00%     76.44% # Number of instructions issued per FU type, per thread (Count)
system.cpu.statIssuedInstType_0::SimdMisc      6422694     10.96%     87.40% # Number of instructions issued per FU type, per thread (Count)
system.cpu.statIssuedInstType_0::SimdMult            0      0.00%     87.40% # Number of instructions issued per FU type, per thread (Count)
system.cpu.statIssuedInstType_0::SimdMultAcc            0      0.00%     87.40% # Number of instructions issued per FU type, per thread (Count)
system.cpu.statIssuedInstType_0::SimdShift            0      0.00%     87.40% # Number of instructions issued per FU type, per thread (Count)
system.cpu.statIssuedInstType_0::SimdShiftAcc            0      0.00%     87.40% # Number of instructions issued per FU type, per thread (Count)
system.cpu.statIssuedInstType_0::SimdDiv            0      0.00%     87.40% # Number of instructions issued per FU type, per thread (Count)
system.cpu.statIssuedInstType_0::SimdSqrt            0      0.00%     87.40% # Number of instructions issued per FU type, per thread (Count)
system.cpu.statIssuedInstType_0::SimdFloatAdd            0      0.00%     87.40% # Number of instructions issued per FU type, per thread (Count)
system.cpu.statIssuedInstType_0::SimdFloatAlu            0      0.00%     87.40% # Number of instructions issued per FU type, per thread (Count)
system.cpu.statIssuedInstType_0::SimdFloatCmp            0      0.00%     87.40% # Number of instructions issued per FU type, per thread (Count)
system.cpu.statIssuedInstType_0::SimdFloatCvt            0      0.00%     87.40% # Number of instructions issued per FU type, per thread (Count)
system.cpu.statIssuedInstType_0::SimdFloatDiv            0      0.00%     87.40% # Number of instructions issued per FU type, per thread (Count)
system.cpu.statIssuedInstType_0::SimdFloatMisc            0      0.00%     87.40% # Number of instructions issued per FU type, per thread (Count)
system.cpu.statIssuedInstType_0::SimdFloatMult            0      0.00%     87.40% # Number of instructions issued per FU type, per thread (Count)
system.cpu.statIssuedInstType_0::SimdFloatMultAcc            0      0.00%     87.40% # Number of instructions issued per FU type, per thread (Count)
system.cpu.statIssuedInstType_0::SimdFloatSqrt            0      0.00%     87.40% # Number of instructions issued per FU type, per thread (Count)
system.cpu.statIssuedInstType_0::SimdReduceAdd            0      0.00%     87.40% # Number of instructions issued per FU type, per thread (Count)
system.cpu.statIssuedInstType_0::SimdReduceAlu            0      0.00%     87.40% # Number of instructions issued per FU type, per thread (Count)
system.cpu.statIssuedInstType_0::SimdReduceCmp            0      0.00%     87.40% # Number of instructions issued per FU type, per thread (Count)
system.cpu.statIssuedInstType_0::SimdFloatReduceAdd            0      0.00%     87.40% # Number of instructions issued per FU type, per thread (Count)
system.cpu.statIssuedInstType_0::SimdFloatReduceCmp            0      0.00%     87.40% # Number of instructions issued per FU type, per thread (Count)
system.cpu.statIssuedInstType_0::SimdAes            0      0.00%     87.40% # Number of instructions issued per FU type, per thread (Count)
system.cpu.statIssuedInstType_0::SimdAesMix            0      0.00%     87.40% # Number of instructions issued per FU type, per thread (Count)
system.cpu.statIssuedInstType_0::SimdSha1Hash            0      0.00%     87.40% # Number of instructions issued per FU type, per thread (Count)
system.cpu.statIssuedInstType_0::SimdSha1Hash2            0      0.00%     87.40% # Number of instructions issued per FU type, per thread (Count)
system.cpu.statIssuedInstType_0::SimdSha256Hash            0      0.00%     87.40% # Number of instructions issued per FU type, per thread (Count)
system.cpu.statIssuedInstType_0::SimdSha256Hash2            0      0.00%     87.40% # Number of instructions issued per FU type, per thread (Count)
system.cpu.statIssuedInstType_0::SimdShaSigma2            0      0.00%     87.40% # Number of instructions issued per FU type, per thread (Count)
system.cpu.statIssuedInstType_0::SimdShaSigma3            0      0.00%     87.40% # Number of instructions issued per FU type, per thread (Count)
system.cpu.statIssuedInstType_0::SimdPredAlu            0      0.00%     87.40% # Number of instructions issued per FU type, per thread (Count)
system.cpu.statIssuedInstType_0::MemRead      6965795     11.89%     99.28% # Number of instructions issued per FU type, per thread (Count)
system.cpu.statIssuedInstType_0::MemWrite       421313      0.72%    100.00% # Number of instructions issued per FU type, per thread (Count)
system.cpu.statIssuedInstType_0::FloatMemRead            0      0.00%    100.00% # Number of instructions issued per FU type, per thread (Count)
system.cpu.statIssuedInstType_0::FloatMemWrite            0      0.00%    100.00% # Number of instructions issued per FU type, per thread (Count)
system.cpu.statIssuedInstType_0::IprAccess            0      0.00%    100.00% # Number of instructions issued per FU type, per thread (Count)
system.cpu.statIssuedInstType_0::InstPrefetch            0      0.00%    100.00% # Number of instructions issued per FU type, per thread (Count)
system.cpu.statIssuedInstType_0::total       58606514                       # Number of instructions issued per FU type, per thread (Count)
system.cpu.issueRate                         1.374467                       # Inst issue rate ((Count/Cycle))
system.cpu.fuBusy                            18334727                       # FU busy when requested (Count)
system.cpu.fuBusyRate                        0.312845                       # FU busy rate (busy events/executed inst) ((Count/Count))
system.cpu.intInstQueueReads                 78168309                       # Number of integer instruction queue reads (Count)
system.cpu.intInstQueueWrites                18554309                       # Number of integer instruction queue writes (Count)
system.cpu.intInstQueueWakeupAccesses        17707958                       # Number of integer instruction queue wakeup accesses (Count)
system.cpu.fpInstQueueReads                         0                       # Number of floating instruction queue reads (Count)
system.cpu.fpInstQueueWrites                        0                       # Number of floating instruction queue writes (Count)
system.cpu.fpInstQueueWakeupAccesses                0                       # Number of floating instruction queue wakeup accesses (Count)
system.cpu.vecInstQueueReads                 99883143                       # Number of vector instruction queue reads (Count)
system.cpu.vecInstQueueWrites                40844608                       # Number of vector instruction queue writes (Count)
system.cpu.vecInstQueueWakeupAccesses        40794714                       # Number of vector instruction queue wakeup accesses (Count)
system.cpu.intAluAccesses                    17860996                       # Number of integer alu accesses (Count)
system.cpu.fpAluAccesses                            0                       # Number of floating point alu accesses (Count)
system.cpu.vecAluAccesses                    57874105                       # Number of vector alu accesses (Count)
system.cpu.numInsts                          58579107                       # Number of executed instructions (Count)
system.cpu.numLoadInsts                       6954112                       # Number of load instructions executed (Count)
system.cpu.numSquashedInsts                     27407                       # Number of squashed instructions skipped in execute (Count)
system.cpu.numSwp                                   0                       # Number of swp insts executed (Count)
system.cpu.numNop                                 468                       # Number of nop insts executed (Count)
system.cpu.numRefs                            7373637                       # Number of memory reference insts executed (Count)
system.cpu.numBranches                         594837                       # Number of branches executed (Count)
system.cpu.numStoreInsts                       419525                       # Number of stores executed (Count)
system.cpu.numRate                           1.373824                       # Inst execution rate ((Count/Cycle))
system.cpu.timesIdled                            1468                       # Number of times that the entire CPU went into an idle state and unscheduled itself (Count)
system.cpu.idleCycles                          137721                       # Total number of cycles that the CPU has spent unscheduled due to idling (Cycle)
system.cpu.committedInsts                    55122723                       # Number of Instructions Simulated (Count)
system.cpu.committedOps                      58205956                       # Number of Ops (including micro ops) Simulated (Count)
system.cpu.cpi                               0.773537                       # CPI: Cycles Per Instruction ((Cycle/Count))
system.cpu.totalCpi                          0.773537                       # CPI: Total CPI of All Threads ((Cycle/Count))
system.cpu.ipc                               1.292763                       # IPC: Instructions Per Cycle ((Count/Cycle))
system.cpu.totalIpc                          1.292763                       # IPC: Total IPC of All Threads ((Count/Cycle))
system.cpu.intRegfileReads                   34842606                       # Number of integer regfile reads (Count)
system.cpu.intRegfileWrites                  22867309                       # Number of integer regfile writes (Count)
system.cpu.vecRegfileReads                   86246157                       # number of vector regfile reads (Count)
system.cpu.ccRegfileReads                     1023486                       # number of cc regfile reads (Count)
system.cpu.ccRegfileWrites                    1018689                       # number of cc regfile writes (Count)
system.cpu.miscRegfileReads                  79620460                       # number of misc regfile reads (Count)
system.cpu.miscRegfileWrites                      213                       # number of misc regfile writes (Count)
system.cpu.MemDepUnit__0.insertedLoads        6954963                       # Number of loads inserted to the mem dependence unit. (Count)
system.cpu.MemDepUnit__0.insertedStores        426985                       # Number of stores inserted to the mem dependence unit. (Count)
system.cpu.MemDepUnit__0.conflictingLoads        11090                       # Number of conflicting loads. (Count)
system.cpu.MemDepUnit__0.conflictingStores        13473                       # Number of conflicting stores. (Count)
system.cpu.MemDepUnit__1.insertedLoads              0                       # Number of loads inserted to the mem dependence unit. (Count)
system.cpu.MemDepUnit__1.insertedStores             0                       # Number of stores inserted to the mem dependence unit. (Count)
system.cpu.MemDepUnit__1.conflictingLoads            0                       # Number of conflicting loads. (Count)
system.cpu.MemDepUnit__1.conflictingStores            0                       # Number of conflicting stores. (Count)
system.cpu.MemDepUnit__2.insertedLoads              0                       # Number of loads inserted to the mem dependence unit. (Count)
system.cpu.MemDepUnit__2.insertedStores             0                       # Number of stores inserted to the mem dependence unit. (Count)
system.cpu.MemDepUnit__2.conflictingLoads            0                       # Number of conflicting loads. (Count)
system.cpu.MemDepUnit__2.conflictingStores            0                       # Number of conflicting stores. (Count)
system.cpu.MemDepUnit__3.insertedLoads              0                       # Number of loads inserted to the mem dependence unit. (Count)
system.cpu.MemDepUnit__3.insertedStores             0                       # Number of stores inserted to the mem dependence unit. (Count)
system.cpu.MemDepUnit__3.conflictingLoads            0                       # Number of conflicting loads. (Count)
system.cpu.MemDepUnit__3.conflictingStores            0                       # Number of conflicting stores. (Count)
system.cpu.branchPred.lookups                  717012                       # Number of BP lookups (Count)
system.cpu.branchPred.condPredicted            642546                       # Number of conditional branches predicted (Count)
system.cpu.branchPred.condIncorrect             18732                       # Number of conditional branches incorrect (Count)
system.cpu.branchPred.BTBLookups               472730                       # Number of BTB lookups (Count)
system.cpu.branchPred.BTBUpdates                 7592                       # Number of BTB updates (Count)
system.cpu.branchPred.BTBHits                  469926                       # Number of BTB hits (Count)
system.cpu.branchPred.BTBHitRatio            0.994068                       # BTB Hit Ratio (Ratio)
system.cpu.branchPred.RASUsed                   17578                       # Number of times the RAS was used to get a target. (Count)
system.cpu.branchPred.RASIncorrect                 41                       # Number of incorrect RAS predictions. (Count)
system.cpu.branchPred.indirectLookups            6601                       # Number of indirect predictor lookups. (Count)
system.cpu.branchPred.indirectHits               1343                       # Number of indirect target hits. (Count)
system.cpu.branchPred.indirectMisses             5258                       # Number of indirect misses. (Count)
system.cpu.branchPred.indirectMispredicted          665                       # Number of mispredicted indirect branches. (Count)
system.cpu.commit.commitSquashedInsts          593617                       # The number of squashed insts skipped by commit (Count)
system.cpu.commit.commitNonSpecStalls             273                       # The number of times commit has been forced to stall to communicate backwards (Count)
system.cpu.commit.branchMispredicts             18636                       # The number of times a branch was mispredicted (Count)
system.cpu.commit.numCommittedDist::samples     42407641                       # Number of insts commited each cycle (Count)
system.cpu.commit.numCommittedDist::mean     1.372538                       # Number of insts commited each cycle (Count)
system.cpu.commit.numCommittedDist::stdev     2.627231                       # Number of insts commited each cycle (Count)
system.cpu.commit.numCommittedDist::underflows            0      0.00%      0.00% # Number of insts commited each cycle (Count)
system.cpu.commit.numCommittedDist::0        31443197     74.15%     74.15% # Number of insts commited each cycle (Count)
system.cpu.commit.numCommittedDist::1          986461      2.33%     76.47% # Number of insts commited each cycle (Count)
system.cpu.commit.numCommittedDist::2          858651      2.02%     78.50% # Number of insts commited each cycle (Count)
system.cpu.commit.numCommittedDist::3          827890      1.95%     80.45% # Number of insts commited each cycle (Count)
system.cpu.commit.numCommittedDist::4         1701703      4.01%     84.46% # Number of insts commited each cycle (Count)
system.cpu.commit.numCommittedDist::5         1220617      2.88%     87.34% # Number of insts commited each cycle (Count)
system.cpu.commit.numCommittedDist::6         1013305      2.39%     89.73% # Number of insts commited each cycle (Count)
system.cpu.commit.numCommittedDist::7          817590      1.93%     91.66% # Number of insts commited each cycle (Count)
system.cpu.commit.numCommittedDist::8         3538227      8.34%    100.00% # Number of insts commited each cycle (Count)
system.cpu.commit.numCommittedDist::overflows            0      0.00%    100.00% # Number of insts commited each cycle (Count)
system.cpu.commit.numCommittedDist::min_value            0                       # Number of insts commited each cycle (Count)
system.cpu.commit.numCommittedDist::max_value            8                       # Number of insts commited each cycle (Count)
system.cpu.commit.numCommittedDist::total     42407641                       # Number of insts commited each cycle (Count)
system.cpu.commit.instsCommitted             55122873                       # Number of instructions committed (Count)
system.cpu.commit.opsCommitted               58206106                       # Number of ops (including micro ops) committed (Count)
system.cpu.commit.memRefs                     7222481                       # Number of memory references committed (Count)
system.cpu.commit.loads                       6832408                       # Number of loads committed (Count)
system.cpu.commit.amos                            106                       # Number of atomic instructions committed (Count)
system.cpu.commit.membars                         114                       # Number of memory barriers committed (Count)
system.cpu.commit.branches                     546714                       # Number of branches committed (Count)
system.cpu.commit.vectorInstructions         40792634                       # Number of committed Vector instructions. (Count)
system.cpu.commit.floating                          0                       # Number of committed floating point instructions. (Count)
system.cpu.commit.integer                    29932716                       # Number of committed integer instructions. (Count)
system.cpu.commit.functionCalls                 11001                       # Number of function calls committed. (Count)
system.cpu.commit.committedInstType_0::No_OpClass      1205186      2.07%      2.07% # Class of committed instruction (Count)
system.cpu.commit.committedInstType_0::IntAlu     16608669     28.53%     30.60% # Class of committed instruction (Count)
system.cpu.commit.committedInstType_0::IntMult         7061      0.01%     30.62% # Class of committed instruction (Count)
system.cpu.commit.committedInstType_0::IntDiv         2565      0.00%     30.62% # Class of committed instruction (Count)
system.cpu.commit.committedInstType_0::FloatAdd            0      0.00%     30.62% # Class of committed instruction (Count)
system.cpu.commit.committedInstType_0::FloatCmp            0      0.00%     30.62% # Class of committed instruction (Count)
system.cpu.commit.committedInstType_0::FloatCvt            0      0.00%     30.62% # Class of committed instruction (Count)
system.cpu.commit.committedInstType_0::FloatMult            0      0.00%     30.62% # Class of committed instruction (Count)
system.cpu.commit.committedInstType_0::FloatMultAcc            0      0.00%     30.62% # Class of committed instruction (Count)
system.cpu.commit.committedInstType_0::FloatDiv            0      0.00%     30.62% # Class of committed instruction (Count)
system.cpu.commit.committedInstType_0::FloatMisc            2      0.00%     30.62% # Class of committed instruction (Count)
system.cpu.commit.committedInstType_0::FloatSqrt            0      0.00%     30.62% # Class of committed instruction (Count)
system.cpu.commit.committedInstType_0::SimdAdd     12845135     22.07%     52.69% # Class of committed instruction (Count)
system.cpu.commit.committedInstType_0::SimdAddAcc            0      0.00%     52.69% # Class of committed instruction (Count)
system.cpu.commit.committedInstType_0::SimdAlu     13892249     23.87%     76.56% # Class of committed instruction (Count)
system.cpu.commit.committedInstType_0::SimdCmp           97      0.00%     76.56% # Class of committed instruction (Count)
system.cpu.commit.committedInstType_0::SimdCvt            0      0.00%     76.56% # Class of committed instruction (Count)
system.cpu.commit.committedInstType_0::SimdMisc      6422661     11.03%     87.59% # Class of committed instruction (Count)
system.cpu.commit.committedInstType_0::SimdMult            0      0.00%     87.59% # Class of committed instruction (Count)
system.cpu.commit.committedInstType_0::SimdMultAcc            0      0.00%     87.59% # Class of committed instruction (Count)
system.cpu.commit.committedInstType_0::SimdShift            0      0.00%     87.59% # Class of committed instruction (Count)
system.cpu.commit.committedInstType_0::SimdShiftAcc            0      0.00%     87.59% # Class of committed instruction (Count)
system.cpu.commit.committedInstType_0::SimdDiv            0      0.00%     87.59% # Class of committed instruction (Count)
system.cpu.commit.committedInstType_0::SimdSqrt            0      0.00%     87.59% # Class of committed instruction (Count)
system.cpu.commit.committedInstType_0::SimdFloatAdd            0      0.00%     87.59% # Class of committed instruction (Count)
system.cpu.commit.committedInstType_0::SimdFloatAlu            0      0.00%     87.59% # Class of committed instruction (Count)
system.cpu.commit.committedInstType_0::SimdFloatCmp            0      0.00%     87.59% # Class of committed instruction (Count)
system.cpu.commit.committedInstType_0::SimdFloatCvt            0      0.00%     87.59% # Class of committed instruction (Count)
system.cpu.commit.committedInstType_0::SimdFloatDiv            0      0.00%     87.59% # Class of committed instruction (Count)
system.cpu.commit.committedInstType_0::SimdFloatMisc            0      0.00%     87.59% # Class of committed instruction (Count)
system.cpu.commit.committedInstType_0::SimdFloatMult            0      0.00%     87.59% # Class of committed instruction (Count)
system.cpu.commit.committedInstType_0::SimdFloatMultAcc            0      0.00%     87.59% # Class of committed instruction (Count)
system.cpu.commit.committedInstType_0::SimdFloatSqrt            0      0.00%     87.59% # Class of committed instruction (Count)
system.cpu.commit.committedInstType_0::SimdReduceAdd            0      0.00%     87.59% # Class of committed instruction (Count)
system.cpu.commit.committedInstType_0::SimdReduceAlu            0      0.00%     87.59% # Class of committed instruction (Count)
system.cpu.commit.committedInstType_0::SimdReduceCmp            0      0.00%     87.59% # Class of committed instruction (Count)
system.cpu.commit.committedInstType_0::SimdFloatReduceAdd            0      0.00%     87.59% # Class of committed instruction (Count)
system.cpu.commit.committedInstType_0::SimdFloatReduceCmp            0      0.00%     87.59% # Class of committed instruction (Count)
system.cpu.commit.committedInstType_0::SimdAes            0      0.00%     87.59% # Class of committed instruction (Count)
system.cpu.commit.committedInstType_0::SimdAesMix            0      0.00%     87.59% # Class of committed instruction (Count)
system.cpu.commit.committedInstType_0::SimdSha1Hash            0      0.00%     87.59% # Class of committed instruction (Count)
system.cpu.commit.committedInstType_0::SimdSha1Hash2            0      0.00%     87.59% # Class of committed instruction (Count)
system.cpu.commit.committedInstType_0::SimdSha256Hash            0      0.00%     87.59% # Class of committed instruction (Count)
system.cpu.commit.committedInstType_0::SimdSha256Hash2            0      0.00%     87.59% # Class of committed instruction (Count)
system.cpu.commit.committedInstType_0::SimdShaSigma2            0      0.00%     87.59% # Class of committed instruction (Count)
system.cpu.commit.committedInstType_0::SimdShaSigma3            0      0.00%     87.59% # Class of committed instruction (Count)
system.cpu.commit.committedInstType_0::SimdPredAlu            0      0.00%     87.59% # Class of committed instruction (Count)
system.cpu.commit.committedInstType_0::MemRead      6832408     11.74%     99.33% # Class of committed instruction (Count)
system.cpu.commit.committedInstType_0::MemWrite       390073      0.67%    100.00% # Class of committed instruction (Count)
system.cpu.commit.committedInstType_0::FloatMemRead            0      0.00%    100.00% # Class of committed instruction (Count)
system.cpu.commit.committedInstType_0::FloatMemWrite            0      0.00%    100.00% # Class of committed instruction (Count)
system.cpu.commit.committedInstType_0::IprAccess            0      0.00%    100.00% # Class of committed instruction (Count)
system.cpu.commit.committedInstType_0::InstPrefetch            0      0.00%    100.00% # Class of committed instruction (Count)
system.cpu.commit.committedInstType_0::total     58206106                       # Class of committed instruction (Count)
system.cpu.commit.commitEligibleSamples       3538227                       # number cycles where commit BW limit reached (Cycle)
system.cpu.dcache.demandHits::cpu.data        6816058                       # number of demand (read+write) hits (Count)
system.cpu.dcache.demandHits::total           6816058                       # number of demand (read+write) hits (Count)
system.cpu.dcache.overallHits::cpu.data       6816058                       # number of overall hits (Count)
system.cpu.dcache.overallHits::total          6816058                       # number of overall hits (Count)
system.cpu.dcache.demandMisses::cpu.data       468472                       # number of demand (read+write) misses (Count)
system.cpu.dcache.demandMisses::total          468472                       # number of demand (read+write) misses (Count)
system.cpu.dcache.overallMisses::cpu.data       468472                       # number of overall misses (Count)
system.cpu.dcache.overallMisses::total         468472                       # number of overall misses (Count)
system.cpu.dcache.demandMissLatency::cpu.data  35382881995                       # number of demand (read+write) miss ticks (Tick)
system.cpu.dcache.demandMissLatency::total  35382881995                       # number of demand (read+write) miss ticks (Tick)
system.cpu.dcache.overallMissLatency::cpu.data  35382881995                       # number of overall miss ticks (Tick)
system.cpu.dcache.overallMissLatency::total  35382881995                       # number of overall miss ticks (Tick)
system.cpu.dcache.demandAccesses::cpu.data      7284530                       # number of demand (read+write) accesses (Count)
system.cpu.dcache.demandAccesses::total       7284530                       # number of demand (read+write) accesses (Count)
system.cpu.dcache.overallAccesses::cpu.data      7284530                       # number of overall (read+write) accesses (Count)
system.cpu.dcache.overallAccesses::total      7284530                       # number of overall (read+write) accesses (Count)
system.cpu.dcache.demandMissRate::cpu.data     0.064311                       # miss rate for demand accesses (Ratio)
system.cpu.dcache.demandMissRate::total      0.064311                       # miss rate for demand accesses (Ratio)
system.cpu.dcache.overallMissRate::cpu.data     0.064311                       # miss rate for overall accesses (Ratio)
system.cpu.dcache.overallMissRate::total     0.064311                       # miss rate for overall accesses (Ratio)
system.cpu.dcache.demandAvgMissLatency::cpu.data 75528.274892                       # average overall miss latency in ticks ((Tick/Count))
system.cpu.dcache.demandAvgMissLatency::total 75528.274892                       # average overall miss latency in ticks ((Tick/Count))
system.cpu.dcache.overallAvgMissLatency::cpu.data 75528.274892                       # average overall miss latency ((Tick/Count))
system.cpu.dcache.overallAvgMissLatency::total 75528.274892                       # average overall miss latency ((Tick/Count))
system.cpu.dcache.blockedCycles::no_mshrs       103199                       # number of cycles access was blocked (Cycle)
system.cpu.dcache.blockedCycles::no_targets          462                       # number of cycles access was blocked (Cycle)
system.cpu.dcache.blockedCauses::no_mshrs         2231                       # number of times access was blocked (Count)
system.cpu.dcache.blockedCauses::no_targets           10                       # number of times access was blocked (Count)
system.cpu.dcache.avgBlocked::no_mshrs      46.256835                       # average number of cycles each access was blocked ((Cycle/Count))
system.cpu.dcache.avgBlocked::no_targets    46.200000                       # average number of cycles each access was blocked ((Cycle/Count))
system.cpu.dcache.writebacks::writebacks         2943                       # number of writebacks (Count)
system.cpu.dcache.writebacks::total              2943                       # number of writebacks (Count)
system.cpu.dcache.demandMshrHits::cpu.data       251535                       # number of demand (read+write) MSHR hits (Count)
system.cpu.dcache.demandMshrHits::total        251535                       # number of demand (read+write) MSHR hits (Count)
system.cpu.dcache.overallMshrHits::cpu.data       251535                       # number of overall MSHR hits (Count)
system.cpu.dcache.overallMshrHits::total       251535                       # number of overall MSHR hits (Count)
system.cpu.dcache.demandMshrMisses::cpu.data       216937                       # number of demand (read+write) MSHR misses (Count)
system.cpu.dcache.demandMshrMisses::total       216937                       # number of demand (read+write) MSHR misses (Count)
system.cpu.dcache.overallMshrMisses::cpu.data       216937                       # number of overall MSHR misses (Count)
system.cpu.dcache.overallMshrMisses::total       216937                       # number of overall MSHR misses (Count)
system.cpu.dcache.demandMshrMissLatency::cpu.data  16203636204                       # number of demand (read+write) MSHR miss ticks (Tick)
system.cpu.dcache.demandMshrMissLatency::total  16203636204                       # number of demand (read+write) MSHR miss ticks (Tick)
system.cpu.dcache.overallMshrMissLatency::cpu.data  16203636204                       # number of overall MSHR miss ticks (Tick)
system.cpu.dcache.overallMshrMissLatency::total  16203636204                       # number of overall MSHR miss ticks (Tick)
system.cpu.dcache.demandMshrMissRate::cpu.data     0.029781                       # mshr miss ratio for demand accesses (Ratio)
system.cpu.dcache.demandMshrMissRate::total     0.029781                       # mshr miss ratio for demand accesses (Ratio)
system.cpu.dcache.overallMshrMissRate::cpu.data     0.029781                       # mshr miss ratio for overall accesses (Ratio)
system.cpu.dcache.overallMshrMissRate::total     0.029781                       # mshr miss ratio for overall accesses (Ratio)
system.cpu.dcache.demandAvgMshrMissLatency::cpu.data 74692.819593                       # average overall mshr miss latency ((Tick/Count))
system.cpu.dcache.demandAvgMshrMissLatency::total 74692.819593                       # average overall mshr miss latency ((Tick/Count))
system.cpu.dcache.overallAvgMshrMissLatency::cpu.data 74692.819593                       # average overall mshr miss latency ((Tick/Count))
system.cpu.dcache.overallAvgMshrMissLatency::total 74692.819593                       # average overall mshr miss latency ((Tick/Count))
system.cpu.dcache.replacements                 215919                       # number of replacements (Count)
system.cpu.dcache.ReadReq.hits::cpu.data      6431743                       # number of ReadReq hits (Count)
system.cpu.dcache.ReadReq.hits::total         6431743                       # number of ReadReq hits (Count)
system.cpu.dcache.ReadReq.misses::cpu.data       462806                       # number of ReadReq misses (Count)
system.cpu.dcache.ReadReq.misses::total        462806                       # number of ReadReq misses (Count)
system.cpu.dcache.ReadReq.missLatency::cpu.data  35045977000                       # number of ReadReq miss ticks (Tick)
system.cpu.dcache.ReadReq.missLatency::total  35045977000                       # number of ReadReq miss ticks (Tick)
system.cpu.dcache.ReadReq.accesses::cpu.data      6894549                       # number of ReadReq accesses(hits+misses) (Count)
system.cpu.dcache.ReadReq.accesses::total      6894549                       # number of ReadReq accesses(hits+misses) (Count)
system.cpu.dcache.ReadReq.missRate::cpu.data     0.067126                       # miss rate for ReadReq accesses (Ratio)
system.cpu.dcache.ReadReq.missRate::total     0.067126                       # miss rate for ReadReq accesses (Ratio)
system.cpu.dcache.ReadReq.avgMissLatency::cpu.data 75724.984119                       # average ReadReq miss latency ((Tick/Count))
system.cpu.dcache.ReadReq.avgMissLatency::total 75724.984119                       # average ReadReq miss latency ((Tick/Count))
system.cpu.dcache.ReadReq.mshrHits::cpu.data       248120                       # number of ReadReq MSHR hits (Count)
system.cpu.dcache.ReadReq.mshrHits::total       248120                       # number of ReadReq MSHR hits (Count)
system.cpu.dcache.ReadReq.mshrMisses::cpu.data       214686                       # number of ReadReq MSHR misses (Count)
system.cpu.dcache.ReadReq.mshrMisses::total       214686                       # number of ReadReq MSHR misses (Count)
system.cpu.dcache.ReadReq.mshrMissLatency::cpu.data  16069421500                       # number of ReadReq MSHR miss ticks (Tick)
system.cpu.dcache.ReadReq.mshrMissLatency::total  16069421500                       # number of ReadReq MSHR miss ticks (Tick)
system.cpu.dcache.ReadReq.mshrMissRate::cpu.data     0.031139                       # mshr miss rate for ReadReq accesses (Ratio)
system.cpu.dcache.ReadReq.mshrMissRate::total     0.031139                       # mshr miss rate for ReadReq accesses (Ratio)
system.cpu.dcache.ReadReq.avgMshrMissLatency::cpu.data 74850.812349                       # average ReadReq mshr miss latency ((Tick/Count))
system.cpu.dcache.ReadReq.avgMshrMissLatency::total 74850.812349                       # average ReadReq mshr miss latency ((Tick/Count))
system.cpu.dcache.SwapReq.hits::cpu.data          100                       # number of SwapReq hits (Count)
system.cpu.dcache.SwapReq.hits::total             100                       # number of SwapReq hits (Count)
system.cpu.dcache.SwapReq.misses::cpu.data            6                       # number of SwapReq misses (Count)
system.cpu.dcache.SwapReq.misses::total             6                       # number of SwapReq misses (Count)
system.cpu.dcache.SwapReq.missLatency::cpu.data       385000                       # number of SwapReq miss ticks (Tick)
system.cpu.dcache.SwapReq.missLatency::total       385000                       # number of SwapReq miss ticks (Tick)
system.cpu.dcache.SwapReq.accesses::cpu.data          106                       # number of SwapReq accesses(hits+misses) (Count)
system.cpu.dcache.SwapReq.accesses::total          106                       # number of SwapReq accesses(hits+misses) (Count)
system.cpu.dcache.SwapReq.missRate::cpu.data     0.056604                       # miss rate for SwapReq accesses (Ratio)
system.cpu.dcache.SwapReq.missRate::total     0.056604                       # miss rate for SwapReq accesses (Ratio)
system.cpu.dcache.SwapReq.avgMissLatency::cpu.data 64166.666667                       # average SwapReq miss latency ((Tick/Count))
system.cpu.dcache.SwapReq.avgMissLatency::total 64166.666667                       # average SwapReq miss latency ((Tick/Count))
system.cpu.dcache.SwapReq.mshrMisses::cpu.data            6                       # number of SwapReq MSHR misses (Count)
system.cpu.dcache.SwapReq.mshrMisses::total            6                       # number of SwapReq MSHR misses (Count)
system.cpu.dcache.SwapReq.mshrMissLatency::cpu.data       379000                       # number of SwapReq MSHR miss ticks (Tick)
system.cpu.dcache.SwapReq.mshrMissLatency::total       379000                       # number of SwapReq MSHR miss ticks (Tick)
system.cpu.dcache.SwapReq.mshrMissRate::cpu.data     0.056604                       # mshr miss rate for SwapReq accesses (Ratio)
system.cpu.dcache.SwapReq.mshrMissRate::total     0.056604                       # mshr miss rate for SwapReq accesses (Ratio)
system.cpu.dcache.SwapReq.avgMshrMissLatency::cpu.data 63166.666667                       # average SwapReq mshr miss latency ((Tick/Count))
system.cpu.dcache.SwapReq.avgMshrMissLatency::total 63166.666667                       # average SwapReq mshr miss latency ((Tick/Count))
system.cpu.dcache.WriteLineReq.misses::cpu.data          131                       # number of WriteLineReq misses (Count)
system.cpu.dcache.WriteLineReq.misses::total          131                       # number of WriteLineReq misses (Count)
system.cpu.dcache.WriteLineReq.missLatency::cpu.data      4174908                       # number of WriteLineReq miss ticks (Tick)
system.cpu.dcache.WriteLineReq.missLatency::total      4174908                       # number of WriteLineReq miss ticks (Tick)
system.cpu.dcache.WriteLineReq.accesses::cpu.data          131                       # number of WriteLineReq accesses(hits+misses) (Count)
system.cpu.dcache.WriteLineReq.accesses::total          131                       # number of WriteLineReq accesses(hits+misses) (Count)
system.cpu.dcache.WriteLineReq.missRate::cpu.data            1                       # miss rate for WriteLineReq accesses (Ratio)
system.cpu.dcache.WriteLineReq.missRate::total            1                       # miss rate for WriteLineReq accesses (Ratio)
system.cpu.dcache.WriteLineReq.avgMissLatency::cpu.data 31869.526718                       # average WriteLineReq miss latency ((Tick/Count))
system.cpu.dcache.WriteLineReq.avgMissLatency::total 31869.526718                       # average WriteLineReq miss latency ((Tick/Count))
system.cpu.dcache.WriteLineReq.mshrMisses::cpu.data          131                       # number of WriteLineReq MSHR misses (Count)
system.cpu.dcache.WriteLineReq.mshrMisses::total          131                       # number of WriteLineReq MSHR misses (Count)
system.cpu.dcache.WriteLineReq.mshrMissLatency::cpu.data      4043908                       # number of WriteLineReq MSHR miss ticks (Tick)
system.cpu.dcache.WriteLineReq.mshrMissLatency::total      4043908                       # number of WriteLineReq MSHR miss ticks (Tick)
system.cpu.dcache.WriteLineReq.mshrMissRate::cpu.data            1                       # mshr miss rate for WriteLineReq accesses (Ratio)
system.cpu.dcache.WriteLineReq.mshrMissRate::total            1                       # mshr miss rate for WriteLineReq accesses (Ratio)
system.cpu.dcache.WriteLineReq.avgMshrMissLatency::cpu.data 30869.526718                       # average WriteLineReq mshr miss latency ((Tick/Count))
system.cpu.dcache.WriteLineReq.avgMshrMissLatency::total 30869.526718                       # average WriteLineReq mshr miss latency ((Tick/Count))
system.cpu.dcache.WriteReq.hits::cpu.data       384315                       # number of WriteReq hits (Count)
system.cpu.dcache.WriteReq.hits::total         384315                       # number of WriteReq hits (Count)
system.cpu.dcache.WriteReq.misses::cpu.data         5535                       # number of WriteReq misses (Count)
system.cpu.dcache.WriteReq.misses::total         5535                       # number of WriteReq misses (Count)
system.cpu.dcache.WriteReq.missLatency::cpu.data    332730087                       # number of WriteReq miss ticks (Tick)
system.cpu.dcache.WriteReq.missLatency::total    332730087                       # number of WriteReq miss ticks (Tick)
system.cpu.dcache.WriteReq.accesses::cpu.data       389850                       # number of WriteReq accesses(hits+misses) (Count)
system.cpu.dcache.WriteReq.accesses::total       389850                       # number of WriteReq accesses(hits+misses) (Count)
system.cpu.dcache.WriteReq.missRate::cpu.data     0.014198                       # miss rate for WriteReq accesses (Ratio)
system.cpu.dcache.WriteReq.missRate::total     0.014198                       # miss rate for WriteReq accesses (Ratio)
system.cpu.dcache.WriteReq.avgMissLatency::cpu.data 60113.836856                       # average WriteReq miss latency ((Tick/Count))
system.cpu.dcache.WriteReq.avgMissLatency::total 60113.836856                       # average WriteReq miss latency ((Tick/Count))
system.cpu.dcache.WriteReq.mshrHits::cpu.data         3415                       # number of WriteReq MSHR hits (Count)
system.cpu.dcache.WriteReq.mshrHits::total         3415                       # number of WriteReq MSHR hits (Count)
system.cpu.dcache.WriteReq.mshrMisses::cpu.data         2120                       # number of WriteReq MSHR misses (Count)
system.cpu.dcache.WriteReq.mshrMisses::total         2120                       # number of WriteReq MSHR misses (Count)
system.cpu.dcache.WriteReq.mshrMissLatency::cpu.data    130170796                       # number of WriteReq MSHR miss ticks (Tick)
system.cpu.dcache.WriteReq.mshrMissLatency::total    130170796                       # number of WriteReq MSHR miss ticks (Tick)
system.cpu.dcache.WriteReq.mshrMissRate::cpu.data     0.005438                       # mshr miss rate for WriteReq accesses (Ratio)
system.cpu.dcache.WriteReq.mshrMissRate::total     0.005438                       # mshr miss rate for WriteReq accesses (Ratio)
system.cpu.dcache.WriteReq.avgMshrMissLatency::cpu.data 61401.318868                       # average WriteReq mshr miss latency ((Tick/Count))
system.cpu.dcache.WriteReq.avgMshrMissLatency::total 61401.318868                       # average WriteReq mshr miss latency ((Tick/Count))
system.cpu.dcache.power_state.pwrStateResidencyTicks::UNDEFINED  21319728000                       # Cumulative time (in ticks) in various power states (Tick)
system.cpu.dcache.tags.tagsInUse          1022.241992                       # Average ticks per tags in use ((Tick/Count))
system.cpu.dcache.tags.totalRefs              7033101                       # Total number of references to valid blocks. (Count)
system.cpu.dcache.tags.sampledRefs             216943                       # Sample count of references to valid blocks. (Count)
system.cpu.dcache.tags.avgRefs              32.419119                       # Average number of references to valid blocks. ((Count/Count))
system.cpu.dcache.tags.warmupTick              253500                       # The tick when the warmup percentage was hit. (Tick)
system.cpu.dcache.tags.occupancies::cpu.data  1022.241992                       # Average occupied blocks per tick, per requestor ((Count/Tick))
system.cpu.dcache.tags.avgOccs::cpu.data     0.998283                       # Average percentage of cache occupancy ((Ratio/Tick))
system.cpu.dcache.tags.avgOccs::total        0.998283                       # Average percentage of cache occupancy ((Ratio/Tick))
system.cpu.dcache.tags.occupanciesTaskId::1024         1024                       # Occupied blocks per task id (Count)
system.cpu.dcache.tags.ageTaskId_1024::0           95                       # Occupied blocks per task id, per block age (Count)
system.cpu.dcache.tags.ageTaskId_1024::1          823                       # Occupied blocks per task id, per block age (Count)
system.cpu.dcache.tags.ageTaskId_1024::2           97                       # Occupied blocks per task id, per block age (Count)
system.cpu.dcache.tags.ageTaskId_1024::3            1                       # Occupied blocks per task id, per block age (Count)
system.cpu.dcache.tags.ageTaskId_1024::4            8                       # Occupied blocks per task id, per block age (Count)
system.cpu.dcache.tags.ratioOccsTaskId::1024            1                       # Ratio of occupied blocks and all blocks, per task id (Ratio)
system.cpu.dcache.tags.tagAccesses           29355487                       # Number of tag accesses (Count)
system.cpu.dcache.tags.dataAccesses          29355487                       # Number of data accesses (Count)
system.cpu.dcache.tags.power_state.pwrStateResidencyTicks::UNDEFINED  21319728000                       # Cumulative time (in ticks) in various power states (Tick)
system.cpu.decode.idleCycles                  2872739                       # Number of cycles decode is idle (Cycle)
system.cpu.decode.blockedCycles              31324602                       # Number of cycles decode is blocked (Cycle)
system.cpu.decode.runCycles                   7605513                       # Number of cycles decode is running (Cycle)
system.cpu.decode.unblockCycles                679722                       # Number of cycles decode is unblocking (Cycle)
system.cpu.decode.squashCycles                  19160                       # Number of cycles decode is squashing (Cycle)
system.cpu.decode.branchResolved               446900                       # Number of times decode resolved a branch (Count)
system.cpu.decode.branchMispred                   831                       # Number of times decode detected a branch misprediction (Count)
system.cpu.decode.decodedInsts               58995263                       # Number of instructions handled by decode (Count)
system.cpu.decode.squashedInsts                  2793                       # Number of squashed instructions handled by decode (Count)
system.cpu.fetch.icacheStallCycles            3939576                       # Number of cycles fetch is stalled on an Icache miss (Cycle)
system.cpu.fetch.insts                       56020922                       # Number of instructions fetch has processed (Count)
system.cpu.fetch.branches                      717012                       # Number of branches that fetch encountered (Count)
system.cpu.fetch.predictedBranches             488847                       # Number of branches that fetch has predicted taken (Count)
system.cpu.fetch.cycles                      38536535                       # Number of cycles fetch has run and was not squashing or blocked (Cycle)
system.cpu.fetch.squashCycles                   39934                       # Number of cycles fetch has spent squashing (Cycle)
system.cpu.fetch.miscStallCycles                  748                       # Number of cycles fetch has spent waiting on interrupts, or bad addresses, or out of MSHRs (Cycle)
system.cpu.fetch.pendingTrapStallCycles          4871                       # Number of stall cycles due to pending traps (Cycle)
system.cpu.fetch.icacheWaitRetryStallCycles           39                       # Number of stall cycles due to full MSHR (Cycle)
system.cpu.fetch.cacheLines                   3888866                       # Number of cache lines fetched (Count)
system.cpu.fetch.icacheSquashes                  4606                       # Number of outstanding Icache misses that were squashed (Count)
system.cpu.fetch.nisnDist::samples           42501736                       # Number of instructions fetched each cycle (Total) (Count)
system.cpu.fetch.nisnDist::mean              1.393514                       # Number of instructions fetched each cycle (Total) (Count)
system.cpu.fetch.nisnDist::stdev             2.924424                       # Number of instructions fetched each cycle (Total) (Count)
system.cpu.fetch.nisnDist::underflows               0      0.00%      0.00% # Number of instructions fetched each cycle (Total) (Count)
system.cpu.fetch.nisnDist::0                 33683656     79.25%     79.25% # Number of instructions fetched each cycle (Total) (Count)
system.cpu.fetch.nisnDist::1                    52000      0.12%     79.37% # Number of instructions fetched each cycle (Total) (Count)
system.cpu.fetch.nisnDist::2                  1457858      3.43%     82.80% # Number of instructions fetched each cycle (Total) (Count)
system.cpu.fetch.nisnDist::3                    61412      0.14%     82.95% # Number of instructions fetched each cycle (Total) (Count)
system.cpu.fetch.nisnDist::4                   248807      0.59%     83.53% # Number of instructions fetched each cycle (Total) (Count)
system.cpu.fetch.nisnDist::5                   138124      0.32%     83.86% # Number of instructions fetched each cycle (Total) (Count)
system.cpu.fetch.nisnDist::6                   233869      0.55%     84.41% # Number of instructions fetched each cycle (Total) (Count)
system.cpu.fetch.nisnDist::7                    22341      0.05%     84.46% # Number of instructions fetched each cycle (Total) (Count)
system.cpu.fetch.nisnDist::8                  6603669     15.54%    100.00% # Number of instructions fetched each cycle (Total) (Count)
system.cpu.fetch.nisnDist::overflows                0      0.00%    100.00% # Number of instructions fetched each cycle (Total) (Count)
system.cpu.fetch.nisnDist::min_value                0                       # Number of instructions fetched each cycle (Total) (Count)
system.cpu.fetch.nisnDist::max_value                8                       # Number of instructions fetched each cycle (Total) (Count)
system.cpu.fetch.nisnDist::total             42501736                       # Number of instructions fetched each cycle (Total) (Count)
system.cpu.fetch.branchRate                  0.016816                       # Number of branch fetches per cycle (Ratio)
system.cpu.fetch.rate                        1.313828                       # Number of inst fetches per cycle ((Count/Cycle))
system.cpu.icache.demandHits::cpu.inst        3886257                       # number of demand (read+write) hits (Count)
system.cpu.icache.demandHits::total           3886257                       # number of demand (read+write) hits (Count)
system.cpu.icache.overallHits::cpu.inst       3886257                       # number of overall hits (Count)
system.cpu.icache.overallHits::total          3886257                       # number of overall hits (Count)
system.cpu.icache.demandMisses::cpu.inst         2609                       # number of demand (read+write) misses (Count)
system.cpu.icache.demandMisses::total            2609                       # number of demand (read+write) misses (Count)
system.cpu.icache.overallMisses::cpu.inst         2609                       # number of overall misses (Count)
system.cpu.icache.overallMisses::total           2609                       # number of overall misses (Count)
system.cpu.icache.demandMissLatency::cpu.inst    174106998                       # number of demand (read+write) miss ticks (Tick)
system.cpu.icache.demandMissLatency::total    174106998                       # number of demand (read+write) miss ticks (Tick)
system.cpu.icache.overallMissLatency::cpu.inst    174106998                       # number of overall miss ticks (Tick)
system.cpu.icache.overallMissLatency::total    174106998                       # number of overall miss ticks (Tick)
system.cpu.icache.demandAccesses::cpu.inst      3888866                       # number of demand (read+write) accesses (Count)
system.cpu.icache.demandAccesses::total       3888866                       # number of demand (read+write) accesses (Count)
system.cpu.icache.overallAccesses::cpu.inst      3888866                       # number of overall (read+write) accesses (Count)
system.cpu.icache.overallAccesses::total      3888866                       # number of overall (read+write) accesses (Count)
system.cpu.icache.demandMissRate::cpu.inst     0.000671                       # miss rate for demand accesses (Ratio)
system.cpu.icache.demandMissRate::total      0.000671                       # miss rate for demand accesses (Ratio)
system.cpu.icache.overallMissRate::cpu.inst     0.000671                       # miss rate for overall accesses (Ratio)
system.cpu.icache.overallMissRate::total     0.000671                       # miss rate for overall accesses (Ratio)
system.cpu.icache.demandAvgMissLatency::cpu.inst 66733.230356                       # average overall miss latency in ticks ((Tick/Count))
system.cpu.icache.demandAvgMissLatency::total 66733.230356                       # average overall miss latency in ticks ((Tick/Count))
system.cpu.icache.overallAvgMissLatency::cpu.inst 66733.230356                       # average overall miss latency ((Tick/Count))
system.cpu.icache.overallAvgMissLatency::total 66733.230356                       # average overall miss latency ((Tick/Count))
system.cpu.icache.blockedCycles::no_mshrs          619                       # number of cycles access was blocked (Cycle)
system.cpu.icache.blockedCycles::no_targets            0                       # number of cycles access was blocked (Cycle)
system.cpu.icache.blockedCauses::no_mshrs           13                       # number of times access was blocked (Count)
system.cpu.icache.blockedCauses::no_targets            0                       # number of times access was blocked (Count)
system.cpu.icache.avgBlocked::no_mshrs      47.615385                       # average number of cycles each access was blocked ((Cycle/Count))
system.cpu.icache.avgBlocked::no_targets          nan                       # average number of cycles each access was blocked ((Cycle/Count))
system.cpu.icache.writebacks::writebacks         1787                       # number of writebacks (Count)
system.cpu.icache.writebacks::total              1787                       # number of writebacks (Count)
system.cpu.icache.demandMshrHits::cpu.inst          565                       # number of demand (read+write) MSHR hits (Count)
system.cpu.icache.demandMshrHits::total           565                       # number of demand (read+write) MSHR hits (Count)
system.cpu.icache.overallMshrHits::cpu.inst          565                       # number of overall MSHR hits (Count)
system.cpu.icache.overallMshrHits::total          565                       # number of overall MSHR hits (Count)
system.cpu.icache.demandMshrMisses::cpu.inst         2044                       # number of demand (read+write) MSHR misses (Count)
system.cpu.icache.demandMshrMisses::total         2044                       # number of demand (read+write) MSHR misses (Count)
system.cpu.icache.overallMshrMisses::cpu.inst         2044                       # number of overall MSHR misses (Count)
system.cpu.icache.overallMshrMisses::total         2044                       # number of overall MSHR misses (Count)
system.cpu.icache.demandMshrMissLatency::cpu.inst    136474999                       # number of demand (read+write) MSHR miss ticks (Tick)
system.cpu.icache.demandMshrMissLatency::total    136474999                       # number of demand (read+write) MSHR miss ticks (Tick)
system.cpu.icache.overallMshrMissLatency::cpu.inst    136474999                       # number of overall MSHR miss ticks (Tick)
system.cpu.icache.overallMshrMissLatency::total    136474999                       # number of overall MSHR miss ticks (Tick)
system.cpu.icache.demandMshrMissRate::cpu.inst     0.000526                       # mshr miss ratio for demand accesses (Ratio)
system.cpu.icache.demandMshrMissRate::total     0.000526                       # mshr miss ratio for demand accesses (Ratio)
system.cpu.icache.overallMshrMissRate::cpu.inst     0.000526                       # mshr miss ratio for overall accesses (Ratio)
system.cpu.icache.overallMshrMissRate::total     0.000526                       # mshr miss ratio for overall accesses (Ratio)
system.cpu.icache.demandAvgMshrMissLatency::cpu.inst 66768.590509                       # average overall mshr miss latency ((Tick/Count))
system.cpu.icache.demandAvgMshrMissLatency::total 66768.590509                       # average overall mshr miss latency ((Tick/Count))
system.cpu.icache.overallAvgMshrMissLatency::cpu.inst 66768.590509                       # average overall mshr miss latency ((Tick/Count))
system.cpu.icache.overallAvgMshrMissLatency::total 66768.590509                       # average overall mshr miss latency ((Tick/Count))
system.cpu.icache.replacements                   1787                       # number of replacements (Count)
system.cpu.icache.ReadReq.hits::cpu.inst      3886257                       # number of ReadReq hits (Count)
system.cpu.icache.ReadReq.hits::total         3886257                       # number of ReadReq hits (Count)
system.cpu.icache.ReadReq.misses::cpu.inst         2609                       # number of ReadReq misses (Count)
system.cpu.icache.ReadReq.misses::total          2609                       # number of ReadReq misses (Count)
system.cpu.icache.ReadReq.missLatency::cpu.inst    174106998                       # number of ReadReq miss ticks (Tick)
system.cpu.icache.ReadReq.missLatency::total    174106998                       # number of ReadReq miss ticks (Tick)
system.cpu.icache.ReadReq.accesses::cpu.inst      3888866                       # number of ReadReq accesses(hits+misses) (Count)
system.cpu.icache.ReadReq.accesses::total      3888866                       # number of ReadReq accesses(hits+misses) (Count)
system.cpu.icache.ReadReq.missRate::cpu.inst     0.000671                       # miss rate for ReadReq accesses (Ratio)
system.cpu.icache.ReadReq.missRate::total     0.000671                       # miss rate for ReadReq accesses (Ratio)
system.cpu.icache.ReadReq.avgMissLatency::cpu.inst 66733.230356                       # average ReadReq miss latency ((Tick/Count))
system.cpu.icache.ReadReq.avgMissLatency::total 66733.230356                       # average ReadReq miss latency ((Tick/Count))
system.cpu.icache.ReadReq.mshrHits::cpu.inst          565                       # number of ReadReq MSHR hits (Count)
system.cpu.icache.ReadReq.mshrHits::total          565                       # number of ReadReq MSHR hits (Count)
system.cpu.icache.ReadReq.mshrMisses::cpu.inst         2044                       # number of ReadReq MSHR misses (Count)
system.cpu.icache.ReadReq.mshrMisses::total         2044                       # number of ReadReq MSHR misses (Count)
system.cpu.icache.ReadReq.mshrMissLatency::cpu.inst    136474999                       # number of ReadReq MSHR miss ticks (Tick)
system.cpu.icache.ReadReq.mshrMissLatency::total    136474999                       # number of ReadReq MSHR miss ticks (Tick)
system.cpu.icache.ReadReq.mshrMissRate::cpu.inst     0.000526                       # mshr miss rate for ReadReq accesses (Ratio)
system.cpu.icache.ReadReq.mshrMissRate::total     0.000526                       # mshr miss rate for ReadReq accesses (Ratio)
system.cpu.icache.ReadReq.avgMshrMissLatency::cpu.inst 66768.590509                       # average ReadReq mshr miss latency ((Tick/Count))
system.cpu.icache.ReadReq.avgMshrMissLatency::total 66768.590509                       # average ReadReq mshr miss latency ((Tick/Count))
system.cpu.icache.power_state.pwrStateResidencyTicks::UNDEFINED  21319728000                       # Cumulative time (in ticks) in various power states (Tick)
system.cpu.icache.tags.tagsInUse           255.814910                       # Average ticks per tags in use ((Tick/Count))
system.cpu.icache.tags.totalRefs              3888300                       # Total number of references to valid blocks. (Count)
system.cpu.icache.tags.sampledRefs               2043                       # Sample count of references to valid blocks. (Count)
system.cpu.icache.tags.avgRefs            1903.230543                       # Average number of references to valid blocks. ((Count/Count))
system.cpu.icache.tags.warmupTick               87500                       # The tick when the warmup percentage was hit. (Tick)
system.cpu.icache.tags.occupancies::cpu.inst   255.814910                       # Average occupied blocks per tick, per requestor ((Count/Tick))
system.cpu.icache.tags.avgOccs::cpu.inst     0.999277                       # Average percentage of cache occupancy ((Ratio/Tick))
system.cpu.icache.tags.avgOccs::total        0.999277                       # Average percentage of cache occupancy ((Ratio/Tick))
system.cpu.icache.tags.occupanciesTaskId::1024          256                       # Occupied blocks per task id (Count)
system.cpu.icache.tags.ageTaskId_1024::0           77                       # Occupied blocks per task id, per block age (Count)
system.cpu.icache.tags.ageTaskId_1024::1           94                       # Occupied blocks per task id, per block age (Count)
system.cpu.icache.tags.ageTaskId_1024::4           85                       # Occupied blocks per task id, per block age (Count)
system.cpu.icache.tags.ratioOccsTaskId::1024            1                       # Ratio of occupied blocks and all blocks, per task id (Ratio)
system.cpu.icache.tags.tagAccesses           15557507                       # Number of tag accesses (Count)
system.cpu.icache.tags.dataAccesses          15557507                       # Number of data accesses (Count)
system.cpu.icache.tags.power_state.pwrStateResidencyTicks::UNDEFINED  21319728000                       # Cumulative time (in ticks) in various power states (Tick)
system.cpu.iew.idleCycles                           0                       # Number of cycles IEW is idle (Cycle)
system.cpu.iew.squashCycles                     19160                       # Number of cycles IEW is squashing (Cycle)
system.cpu.iew.blockCycles                   28703507                       # Number of cycles IEW is blocking (Cycle)
system.cpu.iew.unblockCycles                   446307                       # Number of cycles IEW is unblocking (Cycle)
system.cpu.iew.dispatchedInsts               58802866                       # Number of instructions dispatched to IQ (Count)
system.cpu.iew.dispSquashedInsts                 1888                       # Number of squashed instructions skipped by dispatch (Count)
system.cpu.iew.dispLoadInsts                  6954963                       # Number of dispatched load instructions (Count)
system.cpu.iew.dispStoreInsts                  426985                       # Number of dispatched store instructions (Count)
system.cpu.iew.dispNonSpecInsts                   404                       # Number of dispatched non-speculative instructions (Count)
system.cpu.iew.iqFullEvents                    414493                       # Number of times the IQ has become full, causing a stall (Count)
system.cpu.iew.lsqFullEvents                    28325                       # Number of times the LSQ has become full, causing a stall (Count)
system.cpu.iew.memOrderViolationEvents             78                       # Number of memory order violations (Count)
system.cpu.iew.predictedTakenIncorrect          11304                       # Number of branches that were predicted taken incorrectly (Count)
system.cpu.iew.predictedNotTakenIncorrect         9732                       # Number of branches that were predicted not taken incorrectly (Count)
system.cpu.iew.branchMispredicts                21036                       # Number of branch mispredicts detected at execute (Count)
system.cpu.iew.instsToCommit                 58512716                       # Cumulative count of insts sent to commit (Count)
system.cpu.iew.writebackCount                58502672                       # Cumulative count of insts written-back (Count)
system.cpu.iew.producerInst                  54548600                       # Number of instructions producing a value (Count)
system.cpu.iew.consumerInst                  60722471                       # Number of instructions consuming a value (Count)
system.cpu.iew.wbRate                        1.372031                       # Insts written-back per cycle ((Count/Cycle))
system.cpu.iew.wbFanout                      0.898326                       # Average fanout of values written-back ((Count/Count))
system.cpu.lsq0.forwLoads                       24666                       # Number of loads that had data forwarded from stores (Count)
system.cpu.lsq0.squashedLoads                  122555                       # Number of loads squashed (Count)
system.cpu.lsq0.ignoredResponses                   44                       # Number of memory responses ignored because the instruction is squashed (Count)
system.cpu.lsq0.memOrderViolation                  78                       # Number of memory ordering violations (Count)
system.cpu.lsq0.squashedStores                  36912                       # Number of stores squashed (Count)
system.cpu.lsq0.rescheduledLoads                 9312                       # Number of loads that were rescheduled (Count)
system.cpu.lsq0.blockedByCache                   2134                       # Number of times an access to memory failed due to the cache being blocked (Count)
system.cpu.lsq0.loadToUse::samples            6832408                       # Distribution of cycle latency between the first time a load is issued and its completion (Unspecified)
system.cpu.lsq0.loadToUse::mean             13.341975                       # Distribution of cycle latency between the first time a load is issued and its completion (Unspecified)
system.cpu.lsq0.loadToUse::stdev            41.104568                       # Distribution of cycle latency between the first time a load is issued and its completion (Unspecified)
system.cpu.lsq0.loadToUse::0-9                6377369     93.34%     93.34% # Distribution of cycle latency between the first time a load is issued and its completion (Unspecified)
system.cpu.lsq0.loadToUse::10-19                 2949      0.04%     93.38% # Distribution of cycle latency between the first time a load is issued and its completion (Unspecified)
system.cpu.lsq0.loadToUse::20-29                 6801      0.10%     93.48% # Distribution of cycle latency between the first time a load is issued and its completion (Unspecified)
system.cpu.lsq0.loadToUse::30-39                 1093      0.02%     93.50% # Distribution of cycle latency between the first time a load is issued and its completion (Unspecified)
[...]
system.mem_ctrls.dram.perBankWrBursts::10          125                       # Per bank write bursts (Count)
system.mem_ctrls.dram.perBankWrBursts::11           58                       # Per bank write bursts (Count)
system.mem_ctrls.dram.perBankWrBursts::12          112                       # Per bank write bursts (Count)
system.mem_ctrls.dram.perBankWrBursts::13          194                       # Per bank write bursts (Count)
system.mem_ctrls.dram.perBankWrBursts::14           81                       # Per bank write bursts (Count)
system.mem_ctrls.dram.perBankWrBursts::15          208                       # Per bank write bursts (Count)
system.mem_ctrls.dram.totQLat               974096000                       # Total ticks spent queuing (Tick)
system.mem_ctrls.dram.totBusLat            1070020000                       # Total ticks spent in databus transfers (Tick)
system.mem_ctrls.dram.totMemAccLat         4986671000                       # Total ticks spent from burst creation until serviced by the DRAM (Tick)
system.mem_ctrls.dram.avgQLat                 4551.77                       # Average queueing delay per DRAM burst ((Tick/Count))
system.mem_ctrls.dram.avgBusLat               5000.00                       # Average bus latency per DRAM burst ((Tick/Count))
system.mem_ctrls.dram.avgMemAccLat           23301.77                       # Average memory access latency per DRAM burst ((Tick/Count))
system.mem_ctrls.dram.readRowHits              195596                       # Number of row buffer hits during reads (Count)
system.mem_ctrls.dram.writeRowHits               1483                       # Number of row buffer hits during writes (Count)
system.mem_ctrls.dram.readRowHitRate            91.40                       # Row buffer hit rate for reads (Ratio)
system.mem_ctrls.dram.writeRowHitRate           76.80                       # Row buffer hit rate for writes (Ratio)
system.mem_ctrls.dram.bytesPerActivate::samples        18851                       # Bytes accessed per row activation (Byte)
system.mem_ctrls.dram.bytesPerActivate::mean   733.058193                       # Bytes accessed per row activation (Byte)
system.mem_ctrls.dram.bytesPerActivate::gmean   532.631827                       # Bytes accessed per row activation (Byte)
system.mem_ctrls.dram.bytesPerActivate::stdev   385.061499                       # Bytes accessed per row activation (Byte)
system.mem_ctrls.dram.bytesPerActivate::0-127         2330     12.36%     12.36% # Bytes accessed per row activation (Byte)
system.mem_ctrls.dram.bytesPerActivate::128-255         1730      9.18%     21.54% # Bytes accessed per row activation (Byte)
system.mem_ctrls.dram.bytesPerActivate::256-383          805      4.27%     25.81% # Bytes accessed per row activation (Byte)
system.mem_ctrls.dram.bytesPerActivate::384-511          609      3.23%     29.04% # Bytes accessed per row activation (Byte)
system.mem_ctrls.dram.bytesPerActivate::512-639          539      2.86%     31.90% # Bytes accessed per row activation (Byte)
system.mem_ctrls.dram.bytesPerActivate::640-767          499      2.65%     34.54% # Bytes accessed per row activation (Byte)
system.mem_ctrls.dram.bytesPerActivate::768-895         1478      7.84%     42.39% # Bytes accessed per row activation (Byte)
system.mem_ctrls.dram.bytesPerActivate::896-1023          366      1.94%     44.33% # Bytes accessed per row activation (Byte)
system.mem_ctrls.dram.bytesPerActivate::1024-1151        10495     55.67%    100.00% # Bytes accessed per row activation (Byte)
system.mem_ctrls.dram.bytesPerActivate::total        18851                       # Bytes accessed per row activation (Byte)
system.mem_ctrls.dram.bytesRead              13696256                       # Total bytes read (Byte)
system.mem_ctrls.dram.bytesWritten             123584                       # Total bytes written (Byte)
system.mem_ctrls.dram.avgRdBW              642.421704                       # Average DRAM read bandwidth in MiBytes/s ((Byte/Second))
system.mem_ctrls.dram.avgWrBW                5.796697                       # Average DRAM write bandwidth in MiBytes/s ((Byte/Second))
system.mem_ctrls.dram.peakBW                 12800.00                       # Theoretical peak bandwidth in MiByte/s ((Byte/Second))
system.mem_ctrls.dram.busUtil                    5.06                       # Data bus utilization in percentage (Ratio)
system.mem_ctrls.dram.busUtilRead                5.02                       # Data bus utilization in percentage for reads (Ratio)
system.mem_ctrls.dram.busUtilWrite               0.05                       # Data bus utilization in percentage for writes (Ratio)
system.mem_ctrls.dram.pageHitRate               91.27                       # Row buffer hit rate, read and write combined (Ratio)
system.mem_ctrls.dram.power_state.pwrStateResidencyTicks::UNDEFINED  21319728000                       # Cumulative time (in ticks) in various power states (Tick)
system.mem_ctrls.dram.rank0.actEnergy        67844280                       # Energy for activate commands per rank (pJ) (Joule)
system.mem_ctrls.dram.rank0.preEnergy        36052500                       # Energy for precharge commands per rank (pJ) (Joule)
system.mem_ctrls.dram.rank0.readEnergy      764858220                       # Energy for read commands per rank (pJ) (Joule)
system.mem_ctrls.dram.rank0.writeEnergy       5340060                       # Energy for write commands per rank (pJ) (Joule)
system.mem_ctrls.dram.rank0.refreshEnergy 1682884320.000000                       # Energy for refresh commands per rank (pJ) (Joule)
system.mem_ctrls.dram.rank0.actBackEnergy   5260127010                       # Energy for active background per rank (pJ) (Joule)
system.mem_ctrls.dram.rank0.preBackEnergy   3757195200                       # Energy for precharge background per rank (pJ) (Joule)
system.mem_ctrls.dram.rank0.actPowerDownEnergy            0                       # Energy for active power-down per rank (pJ) (Joule)
system.mem_ctrls.dram.rank0.prePowerDownEnergy            0                       # Energy for precharge power-down per rank (pJ) (Joule)
system.mem_ctrls.dram.rank0.selfRefreshEnergy            0                       # Energy for self refresh per rank (pJ) (Joule)
system.mem_ctrls.dram.rank0.totalEnergy   11574301590                       # Total energy per rank (pJ) (Joule)
system.mem_ctrls.dram.rank0.averagePower   542.891616                       # Core power per rank (mW) (Watt)
system.mem_ctrls.dram.rank0.totalIdleTime            0                       # Total Idle time Per DRAM Rank (Tick)
system.mem_ctrls.dram.rank0.pwrStateTime::IDLE   9672110750                       # Time in different power states (Tick)
system.mem_ctrls.dram.rank0.pwrStateTime::REF    711880000                       # Time in different power states (Tick)
system.mem_ctrls.dram.rank0.pwrStateTime::SREF            0                       # Time in different power states (Tick)
system.mem_ctrls.dram.rank0.pwrStateTime::PRE_PDN            0                       # Time in different power states (Tick)
system.mem_ctrls.dram.rank0.pwrStateTime::ACT  10935737250                       # Time in different power states (Tick)
system.mem_ctrls.dram.rank0.pwrStateTime::ACT_PDN            0                       # Time in different power states (Tick)
system.mem_ctrls.dram.rank1.actEnergy        66787560                       # Energy for activate commands per rank (pJ) (Joule)
system.mem_ctrls.dram.rank1.preEnergy        35487045                       # Energy for precharge commands per rank (pJ) (Joule)
system.mem_ctrls.dram.rank1.readEnergy      763130340                       # Energy for read commands per rank (pJ) (Joule)
system.mem_ctrls.dram.rank1.writeEnergy       4739760                       # Energy for write commands per rank (pJ) (Joule)
system.mem_ctrls.dram.rank1.refreshEnergy 1682884320.000000                       # Energy for refresh commands per rank (pJ) (Joule)
system.mem_ctrls.dram.rank1.actBackEnergy   5272608870                       # Energy for active background per rank (pJ) (Joule)
system.mem_ctrls.dram.rank1.preBackEnergy   3746684160                       # Energy for precharge background per rank (pJ) (Joule)
system.mem_ctrls.dram.rank1.actPowerDownEnergy            0                       # Energy for active power-down per rank (pJ) (Joule)
system.mem_ctrls.dram.rank1.prePowerDownEnergy            0                       # Energy for precharge power-down per rank (pJ) (Joule)
system.mem_ctrls.dram.rank1.selfRefreshEnergy            0                       # Energy for self refresh per rank (pJ) (Joule)
system.mem_ctrls.dram.rank1.totalEnergy   11572322055                       # Total energy per rank (pJ) (Joule)
system.mem_ctrls.dram.rank1.averagePower   542.798766                       # Core power per rank (mW) (Watt)
system.mem_ctrls.dram.rank1.totalIdleTime            0                       # Total Idle time Per DRAM Rank (Tick)
system.mem_ctrls.dram.rank1.pwrStateTime::IDLE   9643922250                       # Time in different power states (Tick)
system.mem_ctrls.dram.rank1.pwrStateTime::REF    711880000                       # Time in different power states (Tick)
system.mem_ctrls.dram.rank1.pwrStateTime::SREF            0                       # Time in different power states (Tick)
system.mem_ctrls.dram.rank1.pwrStateTime::PRE_PDN            0                       # Time in different power states (Tick)
system.mem_ctrls.dram.rank1.pwrStateTime::ACT  10963925750                       # Time in different power states (Tick)
system.mem_ctrls.dram.rank1.pwrStateTime::ACT_PDN            0                       # Time in different power states (Tick)
system.mem_ctrls.power_state.pwrStateResidencyTicks::UNDEFINED  21319728000                       # Cumulative time (in ticks) in various power states (Tick)
system.membus.transDist::ReadResp              212558                       # Transaction distribution (Count)
system.membus.transDist::WritebackDirty          1954                       # Transaction distribution (Count)
system.membus.transDist::CleanEvict            208032                       # Transaction distribution (Count)
system.membus.transDist::ReadExReq               1479                       # Transaction distribution (Count)
system.membus.transDist::ReadExResp              1479                       # Transaction distribution (Count)
system.membus.transDist::ReadSharedReq         212558                       # Transaction distribution (Count)
system.membus.transDist::InvalidateReq            139                       # Transaction distribution (Count)
system.membus.pktCount_system.l2.mem_side_port::system.mem_ctrls.port       638199                       # Packet count per connected requestor and responder (Count)
system.membus.pktCount::total                  638199                       # Packet count per connected requestor and responder (Count)
system.membus.pktSize_system.l2.mem_side_port::system.mem_ctrls.port     13823424                       # Cumulative packet size per connected requestor and responder (Byte)
system.membus.pktSize::total                 13823424                       # Cumulative packet size per connected requestor and responder (Byte)
system.membus.snoops                                0                       # Total snoops (Count)
system.membus.snoopTraffic                          0                       # Total snoop traffic (Byte)
system.membus.snoopFanout::samples             214176                       # Request fanout histogram (Count)
system.membus.snoopFanout::mean                     0                       # Request fanout histogram (Count)
system.membus.snoopFanout::stdev                    0                       # Request fanout histogram (Count)
system.membus.snoopFanout::underflows               0      0.00%      0.00% # Request fanout histogram (Count)
system.membus.snoopFanout::0                   214176    100.00%    100.00% # Request fanout histogram (Count)
system.membus.snoopFanout::1                        0      0.00%    100.00% # Request fanout histogram (Count)
system.membus.snoopFanout::overflows                0      0.00%    100.00% # Request fanout histogram (Count)
system.membus.snoopFanout::min_value                0                       # Request fanout histogram (Count)
system.membus.snoopFanout::max_value                0                       # Request fanout histogram (Count)
system.membus.snoopFanout::total               214176                       # Request fanout histogram (Count)
system.membus.power_state.pwrStateResidencyTicks::UNDEFINED  21319728000                       # Cumulative time (in ticks) in various power states (Tick)
system.membus.reqLayer0.occupancy           533838500                       # Layer occupancy (ticks) (Tick)
system.membus.reqLayer0.utilization               0.0                       # Layer utilization (Ratio)
system.membus.respLayer1.occupancy         1128127000                       # Layer occupancy (ticks) (Tick)
system.membus.respLayer1.utilization              0.1                       # Layer utilization (Ratio)
system.membus.snoop_filter.totRequests         424162                       # Total number of requests made to the snoop filter. (Count)
system.membus.snoop_filter.hitSingleRequests       209986                       # Number of requests hitting in the snoop filter with a single holder of the requested data. (Count)
system.membus.snoop_filter.hitMultiRequests            0                       # Number of requests hitting in the snoop filter with multiple (>1) holders of the requested data. (Count)
system.membus.snoop_filter.totSnoops                0                       # Total number of snoops made to the snoop filter. (Count)
system.membus.snoop_filter.hitSingleSnoops            0                       # Number of snoops hitting in the snoop filter with a single holder of the requested data. (Count)
system.membus.snoop_filter.hitMultiSnoops            0                       # Number of snoops hitting in the snoop filter with multiple (>1) holders of the requested data. (Count)
system.tol2bus.transDist::ReadResp             216729                       # Transaction distribution (Count)
system.tol2bus.transDist::WritebackDirty         4897                       # Transaction distribution (Count)
system.tol2bus.transDist::WritebackClean         1787                       # Transaction distribution (Count)
system.tol2bus.transDist::CleanEvict           421636                       # Transaction distribution (Count)
system.tol2bus.transDist::ReadExReq              2118                       # Transaction distribution (Count)
system.tol2bus.transDist::ReadExResp             2118                       # Transaction distribution (Count)
system.tol2bus.transDist::ReadCleanReq           2044                       # Transaction distribution (Count)
system.tol2bus.transDist::ReadSharedReq        214686                       # Transaction distribution (Count)
system.tol2bus.transDist::InvalidateReq           139                       # Transaction distribution (Count)
system.tol2bus.transDist::InvalidateResp          139                       # Transaction distribution (Count)
system.tol2bus.pktCount_system.cpu.icache.mem_side_port::system.l2.cpu_side_port         5874                       # Packet count per connected requestor and responder (Count)
system.tol2bus.pktCount_system.cpu.dcache.mem_side_port::system.l2.cpu_side_port       649805                       # Packet count per connected requestor and responder (Count)
system.tol2bus.pktCount::total                 655679                       # Packet count per connected requestor and responder (Count)
system.tol2bus.pktSize_system.cpu.icache.mem_side_port::system.l2.cpu_side_port       245120                       # Cumulative packet size per connected requestor and responder (Byte)
system.tol2bus.pktSize_system.cpu.dcache.mem_side_port::system.l2.cpu_side_port     14063808                       # Cumulative packet size per connected requestor and responder (Byte)
system.tol2bus.pktSize::total                14308928                       # Cumulative packet size per connected requestor and responder (Byte)
system.tol2bus.snoops                          210614                       # Total snoops (Count)
system.tol2bus.snoopTraffic                    125056                       # Total snoop traffic (Byte)
system.tol2bus.snoopFanout::samples            429601                       # Request fanout histogram (Count)
system.tol2bus.snoopFanout::mean             0.001834                       # Request fanout histogram (Count)
system.tol2bus.snoopFanout::stdev            0.042789                       # Request fanout histogram (Count)
system.tol2bus.snoopFanout::underflows              0      0.00%      0.00% # Request fanout histogram (Count)
system.tol2bus.snoopFanout::0                  428813     99.82%     99.82% # Request fanout histogram (Count)
system.tol2bus.snoopFanout::1                     788      0.18%    100.00% # Request fanout histogram (Count)
system.tol2bus.snoopFanout::2                       0      0.00%    100.00% # Request fanout histogram (Count)
system.tol2bus.snoopFanout::overflows               0      0.00%    100.00% # Request fanout histogram (Count)
system.tol2bus.snoopFanout::min_value               0                       # Request fanout histogram (Count)
system.tol2bus.snoopFanout::max_value               1                       # Request fanout histogram (Count)
system.tol2bus.snoopFanout::total              429601                       # Request fanout histogram (Count)
system.tol2bus.power_state.pwrStateResidencyTicks::UNDEFINED  21319728000                       # Cumulative time (in ticks) in various power states (Tick)
system.tol2bus.reqLayer0.occupancy          223076500                       # Layer occupancy (ticks) (Tick)
system.tol2bus.reqLayer0.utilization              0.0                       # Layer utilization (Ratio)
system.tol2bus.respLayer0.occupancy           3065498                       # Layer occupancy (ticks) (Tick)
system.tol2bus.respLayer0.utilization             0.0                       # Layer utilization (Ratio)
system.tol2bus.respLayer1.occupancy         325275500                       # Layer occupancy (ticks) (Tick)
system.tol2bus.respLayer1.utilization             0.0                       # Layer utilization (Ratio)
system.tol2bus.snoop_filter.totRequests        436693                       # Total number of requests made to the snoop filter. (Count)
system.tol2bus.snoop_filter.hitSingleRequests       217706                       # Number of requests hitting in the snoop filter with a single holder of the requested data. (Count)
system.tol2bus.snoop_filter.hitMultiRequests            1                       # Number of requests hitting in the snoop filter with multiple (>1) holders of the requested data. (Count)
system.tol2bus.snoop_filter.totSnoops             787                       # Total number of snoops made to the snoop filter. (Count)
system.tol2bus.snoop_filter.hitSingleSnoops          787                       # Number of snoops hitting in the snoop filter with a single holder of the requested data. (Count)
system.tol2bus.snoop_filter.hitMultiSnoops            0                       # Number of snoops hitting in the snoop filter with multiple (>1) holders of the requested data. (Count)
system.voltage_domain.voltage                       1                       # Voltage in Volts (Volt)
system.workload.inst.arm                            0                       # number of arm instructions executed (Count)
system.workload.inst.quiesce                        0                       # number of quiesce instructions executed (Count)

---------- End Simulation Statistics   ----------
