
---------- Begin Simulation Statistics ----------
simSeconds                                   0.073498                       # Number of seconds simulated (Second)
simTicks                                  73498021000                       # Number of ticks simulated (Tick)
finalTick                                 73498021000                       # Number of ticks from beginning of simulation (restored from checkpoints and never reset) (Tick)
simFreq                                  1000000000000                       # The number of ticks per simulated second ((Tick/Second))
hostSeconds                                   1036.64                       # Real time elapsed on the host (Second)
hostTickRate                                 70900343                       # The number of ticks simulated per host second (ticks/s) ((Tick/Second))
hostMemory                                     680124                       # Number of bytes of host memory used (Byte)
simInsts                                    357567053                       # Number of instructions simulated (Count)
simOps                                      377793281                       # Number of ops (including micro ops) simulated (Count)
hostInstRate                                   344929                       # Simulator instruction rate (inst/s) ((Count/Second))
hostOpRate                                     364441                       # Simulator op (including micro ops) rate (op/s) ((Count/Second))
system.clk_domain.clock                          1000                       # Clock period in ticks (Tick)
system.cpu.numCycles                        146996043                       # Number of cpu cycles simulated (Cycle)
system.cpu.numWorkItemsStarted                      0                       # Number of work items this cpu started (Count)
system.cpu.numWorkItemsCompleted                    0                       # Number of work items this cpu completed (Count)
system.cpu.instsAdded                       379353641                       # Number of instructions added to the IQ (excludes non-spec) (Count)
system.cpu.nonSpecInstsAdded                      170                       # Number of non-speculative instructions added to the IQ (Count)
system.cpu.instsIssued                      378840599                       # Number of instructions issued (Count)
system.cpu.squashedInstsIssued                   5871                       # Number of squashed instructions issued (Count)
system.cpu.squashedInstsExamined              1560363                       # Number of squashed instructions iterated over during squash; mainly for profiling (Count)
system.cpu.squashedOperandsExamined           1411195                       # Number of squashed operands that are examined and possibly removed from graph (Count)
system.cpu.squashedNonSpecRemoved                  51                       # Number of squashed non-spec instructions that were removed (Count)
system.cpu.numIssuedDist::samples           146869273                       # Number of insts issued each cycle (Count)
system.cpu.numIssuedDist::mean               2.579441                       # Number of insts issued each cycle (Count)
system.cpu.numIssuedDist::stdev              2.708410                       # Number of insts issued each cycle (Count)
system.cpu.numIssuedDist::underflows                0      0.00%      0.00% # Number of insts issued each cycle (Count)
system.cpu.numIssuedDist::0                  61515130     41.88%     41.88% # Number of insts issued each cycle (Count)
system.cpu.numIssuedDist::1                   8491402      5.78%     47.67% # Number of insts issued each cycle (Count)
system.cpu.numIssuedDist::2                   9572901      6.52%     54.18% # Number of insts issued each cycle (Count)
system.cpu.numIssuedDist::3                  11732461      7.99%     62.17% # Number of insts issued each cycle (Count)
system.cpu.numIssuedDist::4                  13820651      9.41%     71.58% # Number of insts issued each cycle (Count)
system.cpu.numIssuedDist::5                  13931387      9.49%     81.07% # Number of insts issued each cycle (Count)
system.cpu.numIssuedDist::6                  11933148      8.13%     89.19% # Number of insts issued each cycle (Count)
system.cpu.numIssuedDist::7                   7509959      5.11%     94.31% # Number of insts issued each cycle (Count)
system.cpu.numIssuedDist::8                   8362234      5.69%    100.00% # Number of insts issued each cycle (Count)
system.cpu.numIssuedDist::overflows                 0      0.00%    100.00% # Number of insts issued each cycle (Count)
system.cpu.numIssuedDist::min_value                 0                       # Number of insts issued each cycle (Count)
system.cpu.numIssuedDist::max_value                 8                       # Number of insts issued each cycle (Count)
system.cpu.numIssuedDist::total             146869273                       # Number of insts issued each cycle (Count)
system.cpu.statFuBusy::No_OpClass                   0      0.00%      0.00% # attempts to use FU when none available (Count)
system.cpu.statFuBusy::IntAlu                  293854      6.15%      6.15% # attempts to use FU when none available (Count)
system.cpu.statFuBusy::IntMult                  13619      0.29%      6.44% # attempts to use FU when none available (Count)
system.cpu.statFuBusy::IntDiv                    1143      0.02%      6.46% # attempts to use FU when none available (Count)
system.cpu.statFuBusy::FloatAdd                     0      0.00%      6.46% # attempts to use FU when none available (Count)
system.cpu.statFuBusy::FloatCmp                     0      0.00%      6.46% # attempts to use FU when none available (Count)
system.cpu.statFuBusy::FloatCvt                     0      0.00%      6.46% # attempts to use FU when none available (Count)
system.cpu.statFuBusy::FloatMult                    0      0.00%      6.46% # attempts to use FU when none available (Count)
system.cpu.statFuBusy::FloatMultAcc                 0      0.00%      6.46% # attempts to use FU when none available (Count)
system.cpu.statFuBusy::FloatDiv                     0      0.00%      6.46% # attempts to use FU when none available (Count)
system.cpu.statFuBusy::FloatMisc                    0      0.00%      6.46% # attempts to use FU when none available (Count)
system.cpu.statFuBusy::FloatSqrt                    0      0.00%      6.46% # attempts to use FU when none available (Count)
system.cpu.statFuBusy::SimdAdd                  26670      0.56%      7.02% # attempts to use FU when none available (Count)
system.cpu.statFuBusy::SimdAddAcc                   0      0.00%      7.02% # attempts to use FU when none available (Count)
system.cpu.statFuBusy::SimdAlu                     34      0.00%      7.02% # attempts to use FU when none available (Count)
system.cpu.statFuBusy::SimdCmp                     17      0.00%      7.02% # attempts to use FU when none available (Count)
system.cpu.statFuBusy::SimdCvt                      0      0.00%      7.02% # attempts to use FU when none available (Count)
system.cpu.statFuBusy::SimdMisc                     0      0.00%      7.02% # attempts to use FU when none available (Count)
system.cpu.statFuBusy::SimdMult               4383250     91.79%     98.81% # attempts to use FU when none available (Count)
system.cpu.statFuBusy::SimdMultAcc                  0      0.00%     98.81% # attempts to use FU when none available (Count)
system.cpu.statFuBusy::SimdShift                    0      0.00%     98.81% # attempts to use FU when none available (Count)
system.cpu.statFuBusy::SimdShiftAcc                 0      0.00%     98.81% # attempts to use FU when none available (Count)
system.cpu.statFuBusy::SimdDiv                      0      0.00%     98.81% # attempts to use FU when none available (Count)
system.cpu.statFuBusy::SimdSqrt                     0      0.00%     98.81% # attempts to use FU when none available (Count)
system.cpu.statFuBusy::SimdFloatAdd                 0      0.00%     98.81% # attempts to use FU when none available (Count)
system.cpu.statFuBusy::SimdFloatAlu                 0      0.00%     98.81% # attempts to use FU when none available (Count)
system.cpu.statFuBusy::SimdFloatCmp                 0      0.00%     98.81% # attempts to use FU when none available (Count)
system.cpu.statFuBusy::SimdFloatCvt                 0      0.00%     98.81% # attempts to use FU when none available (Count)
system.cpu.statFuBusy::SimdFloatDiv                 0      0.00%     98.81% # attempts to use FU when none available (Count)
system.cpu.statFuBusy::SimdFloatMisc                0      0.00%     98.81% # attempts to use FU when none available (Count)
system.cpu.statFuBusy::SimdFloatMult                0      0.00%     98.81% # attempts to use FU when none available (Count)
system.cpu.statFuBusy::SimdFloatMultAcc             0      0.00%     98.81% # attempts to use FU when none available (Count)
system.cpu.statFuBusy::SimdFloatSqrt                0      0.00%     98.81% # attempts to use FU when none available (Count)
system.cpu.statFuBusy::SimdReduceAdd                0      0.00%     98.81% # attempts to use FU when none available (Count)
system.cpu.statFuBusy::SimdReduceAlu                0      0.00%     98.81% # attempts to use FU when none available (Count)
system.cpu.statFuBusy::SimdReduceCmp                0      0.00%     98.81% # attempts to use FU when none available (Count)
system.cpu.statFuBusy::SimdFloatReduceAdd            0      0.00%     98.81% # attempts to use FU when none available (Count)
system.cpu.statFuBusy::SimdFloatReduceCmp            0      0.00%     98.81% # attempts to use FU when none available (Count)
system.cpu.statFuBusy::SimdAes                      0      0.00%     98.81% # attempts to use FU when none available (Count)
system.cpu.statFuBusy::SimdAesMix                   0      0.00%     98.81% # attempts to use FU when none available (Count)
system.cpu.statFuBusy::SimdSha1Hash                 0      0.00%     98.81% # attempts to use FU when none available (Count)
system.cpu.statFuBusy::SimdSha1Hash2                0      0.00%     98.81% # attempts to use FU when none available (Count)
system.cpu.statFuBusy::SimdSha256Hash               0      0.00%     98.81% # attempts to use FU when none available (Count)
system.cpu.statFuBusy::SimdSha256Hash2              0      0.00%     98.81% # attempts to use FU when none available (Count)
system.cpu.statFuBusy::SimdShaSigma2                0      0.00%     98.81% # attempts to use FU when none available (Count)
system.cpu.statFuBusy::SimdShaSigma3                0      0.00%     98.81% # attempts to use FU when none available (Count)
system.cpu.statFuBusy::SimdPredAlu                  0      0.00%     98.81% # attempts to use FU when none available (Count)
system.cpu.statFuBusy::MemRead                  41876      0.88%     99.69% # attempts to use FU when none available (Count)
system.cpu.statFuBusy::MemWrite                 14934      0.31%    100.00% # attempts to use FU when none available (Count)
system.cpu.statFuBusy::FloatMemRead                 0      0.00%    100.00% # attempts to use FU when none available (Count)
system.cpu.statFuBusy::FloatMemWrite                0      0.00%    100.00% # attempts to use FU when none available (Count)
system.cpu.statFuBusy::IprAccess                    0      0.00%    100.00% # attempts to use FU when none available (Count)
system.cpu.statFuBusy::InstPrefetch                 0      0.00%    100.00% # attempts to use FU when none available (Count)
system.cpu.statIssuedInstType_0::No_OpClass      9986426      2.64%      2.64% # Number of instructions issued per FU type, per thread (Count)
system.cpu.statIssuedInstType_0::IntAlu     157260601     41.51%     44.15% # Number of instructions issued per FU type, per thread (Count)
system.cpu.statIssuedInstType_0::IntMult     20087101      5.30%     49.45% # Number of instructions issued per FU type, per thread (Count)
system.cpu.statIssuedInstType_0::IntDiv          2689      0.00%     49.45% # Number of instructions issued per FU type, per thread (Count)
system.cpu.statIssuedInstType_0::FloatAdd            0      0.00%     49.45% # Number of instructions issued per FU type, per thread (Count)
system.cpu.statIssuedInstType_0::FloatCmp            0      0.00%     49.45% # Number of instructions issued per FU type, per thread (Count)
system.cpu.statIssuedInstType_0::FloatCvt            0      0.00%     49.45% # Number of instructions issued per FU type, per thread (Count)
system.cpu.statIssuedInstType_0::FloatMult            0      0.00%     49.45% # Number of instructions issued per FU type, per thread (Count)
system.cpu.statIssuedInstType_0::FloatMultAcc            0      0.00%     49.45% # Number of instructions issued per FU type, per thread (Count)
system.cpu.statIssuedInstType_0::FloatDiv            0      0.00%     49.45% # Number of instructions issued per FU type, per thread (Count)
system.cpu.statIssuedInstType_0::FloatMisc            2      0.00%     49.45% # Number of instructions issued per FU type, per thread (Count)
system.cpu.statIssuedInstType_0::FloatSqrt            0      0.00%     49.45% # Number of instructions issued per FU type, per thread (Count)
system.cpu.statIssuedInstType_0::SimdAdd     40038617     10.57%     60.02% # Number of instructions issued per FU type, per thread (Count)
system.cpu.statIssuedInstType_0::SimdAddAcc            0      0.00%     60.02% # Number of instructions issued per FU type, per thread (Count)
system.cpu.statIssuedInstType_0::SimdAlu         1956      0.00%     60.02% # Number of instructions issued per FU type, per thread (Count)
system.cpu.statIssuedInstType_0::SimdCmp          125      0.00%     60.02% # Number of instructions issued per FU type, per thread (Count)
system.cpu.statIssuedInstType_0::SimdCvt            0      0.00%     60.02% # Number of instructions issued per FU type, per thread (Count)
system.cpu.statIssuedInstType_0::SimdMisc     40037708     10.57%     70.59% # Number of instructions issued per FU type, per thread (Count)
system.cpu.statIssuedInstType_0::SimdMult     40044024     10.57%     81.16% # Number of instructions issued per FU type, per thread (Count)
system.cpu.statIssuedInstType_0::SimdMultAcc            0      0.00%     81.16% # Number of instructions issued per FU type, per thread (Count)
system.cpu.statIssuedInstType_0::SimdShift            0      0.00%     81.16% # Number of instructions issued per FU type, per thread (Count)
system.cpu.statIssuedInstType_0::SimdShiftAcc            0      0.00%     81.16% # Number of instructions issued per FU type, per thread (Count)
system.cpu.statIssuedInstType_0::SimdDiv            0      0.00%     81.16% # Number of instructions issued per FU type, per thread (Count)
system.cpu.statIssuedInstType_0::SimdSqrt            0      0.00%     81.16% # Number of instructions issued per FU type, per thread (Count)
system.cpu.statIssuedInstType_0::SimdFloatAdd            0      0.00%     81.16% # Number of instructions issued per FU type, per thread (Count)
system.cpu.statIssuedInstType_0::SimdFloatAlu            0      0.00%     81.16% # Number of instructions issued per FU type, per thread (Count)
system.cpu.statIssuedInstType_0::SimdFloatCmp            0      0.00%     81.16% # Number of instructions issued per FU type, per thread (Count)
system.cpu.statIssuedInstType_0::SimdFloatCvt            0      0.00%     81.16% # Number of instructions issued per FU type, per thread (Count)
system.cpu.statIssuedInstType_0::SimdFloatDiv            0      0.00%     81.16% # Number of instructions issued per FU type, per thread (Count)
system.cpu.statIssuedInstType_0::SimdFloatMisc            0      0.00%     81.16% # Number of instructions issued per FU type, per thread (Count)
system.cpu.statIssuedInstType_0::SimdFloatMult            0      0.00%     81.16% # Number of instructions issued per FU type, per thread (Count)
system.cpu.statIssuedInstType_0::SimdFloatMultAcc            0      0.00%     81.16% # Number of instructions issued per FU type, per thread (Count)
system.cpu.statIssuedInstType_0::SimdFloatSqrt            0      0.00%     81.16% # Number of instructions issued per FU type, per thread (Count)
system.cpu.statIssuedInstType_0::SimdReduceAdd            0      0.00%     81.16% # Number of instructions issued per FU type, per thread (Count)
system.cpu.statIssuedInstType_0::SimdReduceAlu            0      0.00%     81.16% # Number of instructions issued per FU type, per thread (Count)
system.cpu.statIssuedInstType_0::SimdReduceCmp            0      0.00%     81.16% # Number of instructions issued per FU type, per thread (Count)
system.cpu.statIssuedInstType_0::SimdFloatReduceAdd            0      0.00%     81.16% # Number of instructions issued per FU type, per thread (Count)
system.cpu.statIssuedInstType_0::SimdFloatReduceCmp            0      0.00%     81.16% # Number of instructions issued per FU type, per thread (Count)
system.cpu.statIssuedInstType_0::SimdAes            0      0.00%     81.16% # Number of instructions issued per FU type, per thread (Count)
system.cpu.statIssuedInstType_0::SimdAesMix            0      0.00%     81.16% # Number of instructions issued per FU type, per thread (Count)
system.cpu.statIssuedInstType_0::SimdSha1Hash            0      0.00%     81.16% # Number of instructions issued per FU type, per thread (Count)
system.cpu.statIssuedInstType_0::SimdSha1Hash2            0      0.00%     81.16% # Number of instructions issued per FU type, per thread (Count)
system.cpu.statIssuedInstType_0::SimdSha256Hash            0      0.00%     81.16% # Number of instructions issued per FU type, per thread (Count)
system.cpu.statIssuedInstType_0::SimdSha256Hash2            0      0.00%     81.16% # Number of instructions issued per FU type, per thread (Count)
system.cpu.statIssuedInstType_0::SimdShaSigma2            0      0.00%     81.16% # Number of instructions issued per FU type, per thread (Count)
system.cpu.statIssuedInstType_0::SimdShaSigma3            0      0.00%     81.16% # Number of instructions issued per FU type, per thread (Count)
system.cpu.statIssuedInstType_0::SimdPredAlu            0      0.00%     81.16% # Number of instructions issued per FU type, per thread (Count)
system.cpu.statIssuedInstType_0::MemRead     51133813     13.50%     94.66% # Number of instructions issued per FU type, per thread (Count)
system.cpu.statIssuedInstType_0::MemWrite     20247537      5.34%    100.00% # Number of instructions issued per FU type, per thread (Count)
system.cpu.statIssuedInstType_0::FloatMemRead            0      0.00%    100.00% # Number of instructions issued per FU type, per thread (Count)
system.cpu.statIssuedInstType_0::FloatMemWrite            0      0.00%    100.00% # Number of instructions issued per FU type, per thread (Count)
system.cpu.statIssuedInstType_0::IprAccess            0      0.00%    100.00% # Number of instructions issued per FU type, per thread (Count)
system.cpu.statIssuedInstType_0::InstPrefetch            0      0.00%    100.00% # Number of instructions issued per FU type, per thread (Count)
system.cpu.statIssuedInstType_0::total      378840599                       # Number of instructions issued per FU type, per thread (Count)
system.cpu.issueRate                         2.577216                       # Inst issue rate ((Count/Cycle))
system.cpu.fuBusy                             4775397                       # FU busy when requested (Count)
system.cpu.fuBusyRate                        0.012605                       # FU busy rate (busy events/executed inst) ((Count/Count))
system.cpu.intInstQueueReads                604723915                       # Number of integer instruction queue reads (Count)
system.cpu.intInstQueueWrites               230306786                       # Number of integer instruction queue writes (Count)
system.cpu.intInstQueueWakeupAccesses       228575085                       # Number of integer instruction queue wakeup accesses (Count)
system.cpu.fpInstQueueReads                         0                       # Number of floating instruction queue reads (Count)
system.cpu.fpInstQueueWrites                        0                       # Number of floating instruction queue writes (Count)
system.cpu.fpInstQueueWakeupAccesses                0                       # Number of floating instruction queue wakeup accesses (Count)
system.cpu.vecInstQueueReads                304607822                       # Number of vector instruction queue reads (Count)
system.cpu.vecInstQueueWrites               150616213                       # Number of vector instruction queue writes (Count)
system.cpu.vecInstQueueWakeupAccesses       150078086                       # Number of vector instruction queue wakeup accesses (Count)
system.cpu.intAluAccesses                   229106099                       # Number of integer alu accesses (Count)
system.cpu.fpAluAccesses                            0                       # Number of floating point alu accesses (Count)
system.cpu.vecAluAccesses                   144523471                       # Number of vector alu accesses (Count)
system.cpu.numInsts                         378745160                       # Number of executed instructions (Count)
system.cpu.numLoadInsts                      51116569                       # Number of load instructions executed (Count)
system.cpu.numSquashedInsts                     95437                       # Number of squashed instructions skipped in execute (Count)
system.cpu.numSwp                                   0                       # Number of swp insts executed (Count)
system.cpu.numNop                                 365                       # Number of nop insts executed (Count)
system.cpu.numRefs                           71359927                       # Number of memory reference insts executed (Count)
system.cpu.numBranches                       25008878                       # Number of branches executed (Count)
system.cpu.numStoreInsts                     20243358                       # Number of stores executed (Count)
system.cpu.numRate                           2.576567                       # Inst execution rate ((Count/Cycle))
system.cpu.timesIdled                            1387                       # Number of times that the entire CPU went into an idle state and unscheduled itself (Count)
system.cpu.idleCycles                          126770                       # Total number of cycles that the CPU has spent unscheduled due to idling (Cycle)
system.cpu.committedInsts                   357567053                       # Number of Instructions Simulated (Count)
system.cpu.committedOps                     377793281                       # Number of Ops (including micro ops) Simulated (Count)
system.cpu.cpi                               0.411101                       # CPI: Cycles Per Instruction ((Cycle/Count))
system.cpu.totalCpi                          0.411101                       # CPI: Total CPI of All Threads ((Cycle/Count))
system.cpu.ipc                               2.432494                       # IPC: Instructions Per Cycle ((Count/Cycle))
system.cpu.totalIpc                          2.432494                       # IPC: Total IPC of All Threads ((Count/Cycle))
system.cpu.intRegfileReads                  410941952                       # Number of integer regfile reads (Count)
system.cpu.intRegfileWrites                 192999051                       # Number of integer regfile writes (Count)
system.cpu.vecRegfileReads                  310147449                       # number of vector regfile reads (Count)
system.cpu.ccRegfileReads                    91353777                       # number of cc regfile reads (Count)
system.cpu.ccRegfileWrites                   91377294                       # number of cc regfile writes (Count)
system.cpu.miscRegfileReads                 280957943                       # number of misc regfile reads (Count)
system.cpu.miscRegfileWrites                       61                       # number of misc regfile writes (Count)
system.cpu.MemDepUnit__0.insertedLoads       51157024                       # Number of loads inserted to the mem dependence unit. (Count)
system.cpu.MemDepUnit__0.insertedStores      20286001                       # Number of stores inserted to the mem dependence unit. (Count)
system.cpu.MemDepUnit__0.conflictingLoads     16080053                       # Number of conflicting loads. (Count)
system.cpu.MemDepUnit__0.conflictingStores      4055490                       # Number of conflicting stores. (Count)
system.cpu.MemDepUnit__1.insertedLoads              0                       # Number of loads inserted to the mem dependence unit. (Count)
system.cpu.MemDepUnit__1.insertedStores             0                       # Number of stores inserted to the mem dependence unit. (Count)
system.cpu.MemDepUnit__1.conflictingLoads            0                       # Number of conflicting loads. (Count)
system.cpu.MemDepUnit__1.conflictingStores            0                       # Number of conflicting stores. (Count)
system.cpu.MemDepUnit__2.insertedLoads              0                       # Number of loads inserted to the mem dependence unit. (Count)
system.cpu.MemDepUnit__2.insertedStores             0                       # Number of stores inserted to the mem dependence unit. (Count)
system.cpu.MemDepUnit__2.conflictingLoads            0                       # Number of conflicting loads. (Count)
system.cpu.MemDepUnit__2.conflictingStores            0                       # Number of conflicting stores. (Count)
system.cpu.MemDepUnit__3.insertedLoads              0                       # Number of loads inserted to the mem dependence unit. (Count)
system.cpu.MemDepUnit__3.insertedStores             0                       # Number of stores inserted to the mem dependence unit. (Count)
system.cpu.MemDepUnit__3.conflictingLoads            0                       # Number of conflicting loads. (Count)
system.cpu.MemDepUnit__3.conflictingStores            0                       # Number of conflicting stores. (Count)
system.cpu.branchPred.lookups                25183516                       # Number of BP lookups (Count)
system.cpu.branchPred.condPredicted          25110243                       # Number of conditional branches predicted (Count)
system.cpu.branchPred.condIncorrect             31803                       # Number of conditional branches incorrect (Count)
system.cpu.branchPred.BTBLookups               816845                       # Number of BTB lookups (Count)
system.cpu.branchPred.BTBUpdates                16672                       # Number of BTB updates (Count)
system.cpu.branchPred.BTBHits                  799078                       # Number of BTB hits (Count)
system.cpu.branchPred.BTBHitRatio            0.978249                       # BTB Hit Ratio (Ratio)
system.cpu.branchPred.RASUsed                   17219                       # Number of times the RAS was used to get a target. (Count)
system.cpu.branchPred.RASIncorrect                 35                       # Number of incorrect RAS predictions. (Count)
system.cpu.branchPred.indirectLookups            6221                       # Number of indirect predictor lookups. (Count)
system.cpu.branchPred.indirectHits               1309                       # Number of indirect target hits. (Count)
system.cpu.branchPred.indirectMisses             4912                       # Number of indirect misses. (Count)
system.cpu.branchPred.indirectMispredicted          583                       # Number of mispredicted indirect branches. (Count)
system.cpu.commit.commitSquashedInsts         1535528                       # The number of squashed insts skipped by commit (Count)
system.cpu.commit.commitNonSpecStalls             119                       # The number of times commit has been forced to stall to communicate backwards (Count)
system.cpu.commit.branchMispredicts             31405                       # The number of times a branch was mispredicted (Count)
system.cpu.commit.numCommittedDist::samples    146654683                       # Number of insts commited each cycle (Count)
system.cpu.commit.numCommittedDist::mean     2.576074                       # Number of insts commited each cycle (Count)
system.cpu.commit.numCommittedDist::stdev     3.546592                       # Number of insts commited each cycle (Count)
system.cpu.commit.numCommittedDist::underflows            0      0.00%      0.00% # Number of insts commited each cycle (Count)
system.cpu.commit.numCommittedDist::0        86531179     59.00%     59.00% # Number of insts commited each cycle (Count)
system.cpu.commit.numCommittedDist::1         9025109      6.15%     65.16% # Number of insts commited each cycle (Count)
system.cpu.commit.numCommittedDist::2         2460196      1.68%     66.83% # Number of insts commited each cycle (Count)
system.cpu.commit.numCommittedDist::3         1216161      0.83%     67.66% # Number of insts commited each cycle (Count)
system.cpu.commit.numCommittedDist::4         2666299      1.82%     69.48% # Number of insts commited each cycle (Count)
system.cpu.commit.numCommittedDist::5          816526      0.56%     70.04% # Number of insts commited each cycle (Count)
system.cpu.commit.numCommittedDist::6         1914930      1.31%     71.34% # Number of insts commited each cycle (Count)
system.cpu.commit.numCommittedDist::7         2232268      1.52%     72.87% # Number of insts commited each cycle (Count)
system.cpu.commit.numCommittedDist::8        39792015     27.13%    100.00% # Number of insts commited each cycle (Count)
system.cpu.commit.numCommittedDist::overflows            0      0.00%    100.00% # Number of insts commited each cycle (Count)
system.cpu.commit.numCommittedDist::min_value            0                       # Number of insts commited each cycle (Count)
system.cpu.commit.numCommittedDist::max_value            8                       # Number of insts commited each cycle (Count)
system.cpu.commit.numCommittedDist::total    146654683                       # Number of insts commited each cycle (Count)
system.cpu.commit.instsCommitted            357567158                       # Number of instructions committed (Count)
system.cpu.commit.opsCommitted              377793386                       # Number of ops (including micro ops) committed (Count)
system.cpu.commit.memRefs                    71132384                       # Number of memory references committed (Count)
system.cpu.commit.loads                      50926121                       # Number of loads committed (Count)
system.cpu.commit.amos                             30                       # Number of atomic instructions committed (Count)
system.cpu.commit.membars                          38                       # Number of memory barriers committed (Count)
system.cpu.commit.branches                   24915565                       # Number of branches committed (Count)
system.cpu.commit.vectorInstructions        149922847                       # Number of committed Vector instructions. (Count)
system.cpu.commit.floating                          0                       # Number of committed floating point instructions. (Count)
system.cpu.commit.integer                   265574658                       # Number of committed integer instructions. (Count)
system.cpu.commit.functionCalls                 10803                       # Number of function calls committed. (Count)
system.cpu.commit.committedInstType_0::No_OpClass      9978486      2.64%      2.64% # Class of committed instruction (Count)
system.cpu.commit.committedInstType_0::IntAlu    156654716     41.47%     44.11% # Class of committed instruction (Count)
system.cpu.commit.committedInstType_0::IntMult     20040056      5.30%     49.41% # Class of committed instruction (Count)
system.cpu.commit.committedInstType_0::IntDiv         2554      0.00%     49.41% # Class of committed instruction (Count)
system.cpu.commit.committedInstType_0::FloatAdd            0      0.00%     49.41% # Class of committed instruction (Count)
system.cpu.commit.committedInstType_0::FloatCmp            0      0.00%     49.41% # Class of committed instruction (Count)
system.cpu.commit.committedInstType_0::FloatCvt            0      0.00%     49.41% # Class of committed instruction (Count)
system.cpu.commit.committedInstType_0::FloatMult            0      0.00%     49.41% # Class of committed instruction (Count)
system.cpu.commit.committedInstType_0::FloatMultAcc            0      0.00%     49.41% # Class of committed instruction (Count)
system.cpu.commit.committedInstType_0::FloatDiv            0      0.00%     49.41% # Class of committed instruction (Count)
system.cpu.commit.committedInstType_0::FloatMisc            2      0.00%     49.41% # Class of committed instruction (Count)
system.cpu.commit.committedInstType_0::FloatSqrt            0      0.00%     49.41% # Class of committed instruction (Count)
system.cpu.commit.committedInstType_0::SimdAdd     39994447     10.59%     60.00% # Class of committed instruction (Count)
system.cpu.commit.committedInstType_0::SimdAddAcc            0      0.00%     60.00% # Class of committed instruction (Count)
system.cpu.commit.committedInstType_0::SimdAlu         1817      0.00%     60.00% # Class of committed instruction (Count)
system.cpu.commit.committedInstType_0::SimdCmp           97      0.00%     60.00% # Class of committed instruction (Count)
system.cpu.commit.committedInstType_0::SimdCvt            0      0.00%     60.00% # Class of committed instruction (Count)
system.cpu.commit.committedInstType_0::SimdMisc     39994459     10.59%     70.59% # Class of committed instruction (Count)
system.cpu.commit.committedInstType_0::SimdMult     39994368     10.59%     81.17% # Class of committed instruction (Count)
system.cpu.commit.committedInstType_0::SimdMultAcc            0      0.00%     81.17% # Class of committed instruction (Count)
system.cpu.commit.committedInstType_0::SimdShift            0      0.00%     81.17% # Class of committed instruction (Count)
system.cpu.commit.committedInstType_0::SimdShiftAcc            0      0.00%     81.17% # Class of committed instruction (Count)
system.cpu.commit.committedInstType_0::SimdDiv            0      0.00%     81.17% # Class of committed instruction (Count)
system.cpu.commit.committedInstType_0::SimdSqrt            0      0.00%     81.17% # Class of committed instruction (Count)
system.cpu.commit.committedInstType_0::SimdFloatAdd            0      0.00%     81.17% # Class of committed instruction (Count)
system.cpu.commit.committedInstType_0::SimdFloatAlu            0      0.00%     81.17% # Class of committed instruction (Count)
system.cpu.commit.committedInstType_0::SimdFloatCmp            0      0.00%     81.17% # Class of committed instruction (Count)
system.cpu.commit.committedInstType_0::SimdFloatCvt            0      0.00%     81.17% # Class of committed instruction (Count)
system.cpu.commit.committedInstType_0::SimdFloatDiv            0      0.00%     81.17% # Class of committed instruction (Count)
system.cpu.commit.committedInstType_0::SimdFloatMisc            0      0.00%     81.17% # Class of committed instruction (Count)
system.cpu.commit.committedInstType_0::SimdFloatMult            0      0.00%     81.17% # Class of committed instruction (Count)
system.cpu.commit.committedInstType_0::SimdFloatMultAcc            0      0.00%     81.17% # Class of committed instruction (Count)
system.cpu.commit.committedInstType_0::SimdFloatSqrt            0      0.00%     81.17% # Class of committed instruction (Count)
system.cpu.commit.committedInstType_0::SimdReduceAdd            0      0.00%     81.17% # Class of committed instruction (Count)
system.cpu.commit.committedInstType_0::SimdReduceAlu            0      0.00%     81.17% # Class of committed instruction (Count)
system.cpu.commit.committedInstType_0::SimdReduceCmp            0      0.00%     81.17% # Class of committed instruction (Count)
system.cpu.commit.committedInstType_0::SimdFloatReduceAdd            0      0.00%     81.17% # Class of committed instruction (Count)
system.cpu.commit.committedInstType_0::SimdFloatReduceCmp            0      0.00%     81.17% # Class of committed instruction (Count)
system.cpu.commit.committedInstType_0::SimdAes            0      0.00%     81.17% # Class of committed instruction (Count)
system.cpu.commit.committedInstType_0::SimdAesMix            0      0.00%     81.17% # Class of committed instruction (Count)
system.cpu.commit.committedInstType_0::SimdSha1Hash            0      0.00%     81.17% # Class of committed instruction (Count)
system.cpu.commit.committedInstType_0::SimdSha1Hash2            0      0.00%     81.17% # Class of committed instruction (Count)
system.cpu.commit.committedInstType_0::SimdSha256Hash            0      0.00%     81.17% # Class of committed instruction (Count)
system.cpu.commit.committedInstType_0::SimdSha256Hash2            0      0.00%     81.17% # Class of committed instruction (Count)
system.cpu.commit.committedInstType_0::SimdShaSigma2            0      0.00%     81.17% # Class of committed instruction (Count)
system.cpu.commit.committedInstType_0::SimdShaSigma3            0      0.00%     81.17% # Class of committed instruction (Count)
system.cpu.commit.committedInstType_0::SimdPredAlu            0      0.00%     81.17% # Class of committed instruction (Count)
system.cpu.commit.committedInstType_0::MemRead     50926121     13.48%     94.65% # Class of committed instruction (Count)
system.cpu.commit.committedInstType_0::MemWrite     20206263      5.35%    100.00% # Class of committed instruction (Count)
system.cpu.commit.committedInstType_0::FloatMemRead            0      0.00%    100.00% # Class of committed instruction (Count)
system.cpu.commit.committedInstType_0::FloatMemWrite            0      0.00%    100.00% # Class of committed instruction (Count)
system.cpu.commit.committedInstType_0::IprAccess            0      0.00%    100.00% # Class of committed instruction (Count)
system.cpu.commit.committedInstType_0::InstPrefetch            0      0.00%    100.00% # Class of committed instruction (Count)
system.cpu.commit.committedInstType_0::total    377793386                       # Class of committed instruction (Count)
system.cpu.commit.commitEligibleSamples      39792015                       # number cycles where commit BW limit reached (Cycle)
system.cpu.dcache.demandHits::cpu.data       58647683                       # number of demand (read+write) hits (Count)
system.cpu.dcache.demandHits::total          58647683                       # number of demand (read+write) hits (Count)
system.cpu.dcache.overallHits::cpu.data      58647683                       # number of overall hits (Count)
system.cpu.dcache.overallHits::total         58647683                       # number of overall hits (Count)
system.cpu.dcache.demandMisses::cpu.data      1769378                       # number of demand (read+write) misses (Count)
system.cpu.dcache.demandMisses::total         1769378                       # number of demand (read+write) misses (Count)
system.cpu.dcache.overallMisses::cpu.data      1769378                       # number of overall misses (Count)
system.cpu.dcache.overallMisses::total        1769378                       # number of overall misses (Count)
system.cpu.dcache.demandMissLatency::cpu.data  76879656485                       # number of demand (read+write) miss ticks (Tick)
system.cpu.dcache.demandMissLatency::total  76879656485                       # number of demand (read+write) miss ticks (Tick)
system.cpu.dcache.overallMissLatency::cpu.data  76879656485                       # number of overall miss ticks (Tick)
system.cpu.dcache.overallMissLatency::total  76879656485                       # number of overall miss ticks (Tick)
system.cpu.dcache.demandAccesses::cpu.data     60417061                       # number of demand (read+write) accesses (Count)
system.cpu.dcache.demandAccesses::total      60417061                       # number of demand (read+write) accesses (Count)
system.cpu.dcache.overallAccesses::cpu.data     60417061                       # number of overall (read+write) accesses (Count)
system.cpu.dcache.overallAccesses::total     60417061                       # number of overall (read+write) accesses (Count)
system.cpu.dcache.demandMissRate::cpu.data     0.029286                       # miss rate for demand accesses (Ratio)
system.cpu.dcache.demandMissRate::total      0.029286                       # miss rate for demand accesses (Ratio)
system.cpu.dcache.overallMissRate::cpu.data     0.029286                       # miss rate for overall accesses (Ratio)
system.cpu.dcache.overallMissRate::total     0.029286                       # miss rate for overall accesses (Ratio)
system.cpu.dcache.demandAvgMissLatency::cpu.data 43450.103079                       # average overall miss latency in ticks ((Tick/Count))
system.cpu.dcache.demandAvgMissLatency::total 43450.103079                       # average overall miss latency in ticks ((Tick/Count))
system.cpu.dcache.overallAvgMissLatency::cpu.data 43450.103079                       # average overall miss latency ((Tick/Count))
system.cpu.dcache.overallAvgMissLatency::total 43450.103079                       # average overall miss latency ((Tick/Count))
system.cpu.dcache.blockedCycles::no_mshrs       109980                       # number of cycles access was blocked (Cycle)
system.cpu.dcache.blockedCycles::no_targets          436                       # number of cycles access was blocked (Cycle)
system.cpu.dcache.blockedCauses::no_mshrs         2316                       # number of times access was blocked (Count)
system.cpu.dcache.blockedCauses::no_targets           11                       # number of times access was blocked (Count)
system.cpu.dcache.avgBlocked::no_mshrs      47.487047                       # average number of cycles each access was blocked ((Cycle/Count))
system.cpu.dcache.avgBlocked::no_targets    39.636364                       # average number of cycles each access was blocked ((Cycle/Count))
system.cpu.dcache.writebacks::writebacks      1173445                       # number of writebacks (Count)
system.cpu.dcache.writebacks::total           1173445                       # number of writebacks (Count)
system.cpu.dcache.demandMshrHits::cpu.data       184386                       # number of demand (read+write) MSHR hits (Count)
system.cpu.dcache.demandMshrHits::total        184386                       # number of demand (read+write) MSHR hits (Count)
system.cpu.dcache.overallMshrHits::cpu.data       184386                       # number of overall MSHR hits (Count)
system.cpu.dcache.overallMshrHits::total       184386                       # number of overall MSHR hits (Count)
system.cpu.dcache.demandMshrMisses::cpu.data      1584992                       # number of demand (read+write) MSHR misses (Count)
system.cpu.dcache.demandMshrMisses::total      1584992                       # number of demand (read+write) MSHR misses (Count)
system.cpu.dcache.overallMshrMisses::cpu.data      1584992                       # number of overall MSHR misses (Count)
system.cpu.dcache.overallMshrMisses::total      1584992                       # number of overall MSHR misses (Count)
system.cpu.dcache.demandMshrMissLatency::cpu.data  61524326193                       # number of demand (read+write) MSHR miss ticks (Tick)
system.cpu.dcache.demandMshrMissLatency::total  61524326193                       # number of demand (read+write) MSHR miss ticks (Tick)
system.cpu.dcache.overallMshrMissLatency::cpu.data  61524326193                       # number of overall MSHR miss ticks (Tick)
system.cpu.dcache.overallMshrMissLatency::total  61524326193                       # number of overall MSHR miss ticks (Tick)
system.cpu.dcache.demandMshrMissRate::cpu.data     0.026234                       # mshr miss ratio for demand accesses (Ratio)
system.cpu.dcache.demandMshrMissRate::total     0.026234                       # mshr miss ratio for demand accesses (Ratio)
system.cpu.dcache.overallMshrMissRate::cpu.data     0.026234                       # mshr miss ratio for overall accesses (Ratio)
system.cpu.dcache.overallMshrMissRate::total     0.026234                       # mshr miss ratio for overall accesses (Ratio)
system.cpu.dcache.demandAvgMshrMissLatency::cpu.data 38816.805506                       # average overall mshr miss latency ((Tick/Count))
system.cpu.dcache.demandAvgMshrMissLatency::total 38816.805506                       # average overall mshr miss latency ((Tick/Count))
system.cpu.dcache.overallAvgMshrMissLatency::cpu.data 38816.805506                       # average overall mshr miss latency ((Tick/Count))
system.cpu.dcache.overallAvgMshrMissLatency::total 38816.805506                       # average overall mshr miss latency ((Tick/Count))
system.cpu.dcache.replacements                1583968                       # number of replacements (Count)
system.cpu.dcache.ReadReq.hits::cpu.data     38447094                       # number of ReadReq hits (Count)
system.cpu.dcache.ReadReq.hits::total        38447094                       # number of ReadReq hits (Count)
system.cpu.dcache.ReadReq.misses::cpu.data      1763720                       # number of ReadReq misses (Count)
system.cpu.dcache.ReadReq.misses::total       1763720                       # number of ReadReq misses (Count)
system.cpu.dcache.ReadReq.missLatency::cpu.data  76545251000                       # number of ReadReq miss ticks (Tick)
system.cpu.dcache.ReadReq.missLatency::total  76545251000                       # number of ReadReq miss ticks (Tick)
system.cpu.dcache.ReadReq.accesses::cpu.data     40210814                       # number of ReadReq accesses(hits+misses) (Count)
system.cpu.dcache.ReadReq.accesses::total     40210814                       # number of ReadReq accesses(hits+misses) (Count)
system.cpu.dcache.ReadReq.missRate::cpu.data     0.043862                       # miss rate for ReadReq accesses (Ratio)
system.cpu.dcache.ReadReq.missRate::total     0.043862                       # miss rate for ReadReq accesses (Ratio)
system.cpu.dcache.ReadReq.avgMissLatency::cpu.data 43399.888304                       # average ReadReq miss latency ((Tick/Count))
system.cpu.dcache.ReadReq.avgMissLatency::total 43399.888304                       # average ReadReq miss latency ((Tick/Count))
system.cpu.dcache.ReadReq.mshrHits::cpu.data       180973                       # number of ReadReq MSHR hits (Count)
system.cpu.dcache.ReadReq.mshrHits::total       180973                       # number of ReadReq MSHR hits (Count)
system.cpu.dcache.ReadReq.mshrMisses::cpu.data      1582747                       # number of ReadReq MSHR misses (Count)
system.cpu.dcache.ReadReq.mshrMisses::total      1582747                       # number of ReadReq MSHR misses (Count)
system.cpu.dcache.ReadReq.mshrMissLatency::cpu.data  61393779000                       # number of ReadReq MSHR miss ticks (Tick)
system.cpu.dcache.ReadReq.mshrMissLatency::total  61393779000                       # number of ReadReq MSHR miss ticks (Tick)
system.cpu.dcache.ReadReq.mshrMissRate::cpu.data     0.039361                       # mshr miss rate for ReadReq accesses (Ratio)
system.cpu.dcache.ReadReq.mshrMissRate::total     0.039361                       # mshr miss rate for ReadReq accesses (Ratio)
system.cpu.dcache.ReadReq.avgMshrMissLatency::cpu.data 38789.382637                       # average ReadReq mshr miss latency ((Tick/Count))
system.cpu.dcache.ReadReq.avgMshrMissLatency::total 38789.382637                       # average ReadReq mshr miss latency ((Tick/Count))
system.cpu.dcache.SwapReq.hits::cpu.data           27                       # number of SwapReq hits (Count)
system.cpu.dcache.SwapReq.hits::total              27                       # number of SwapReq hits (Count)
system.cpu.dcache.SwapReq.misses::cpu.data            3                       # number of SwapReq misses (Count)
system.cpu.dcache.SwapReq.misses::total             3                       # number of SwapReq misses (Count)
system.cpu.dcache.SwapReq.missLatency::cpu.data       112000                       # number of SwapReq miss ticks (Tick)
system.cpu.dcache.SwapReq.missLatency::total       112000                       # number of SwapReq miss ticks (Tick)
system.cpu.dcache.SwapReq.accesses::cpu.data           30                       # number of SwapReq accesses(hits+misses) (Count)
system.cpu.dcache.SwapReq.accesses::total           30                       # number of SwapReq accesses(hits+misses) (Count)
system.cpu.dcache.SwapReq.missRate::cpu.data     0.100000                       # miss rate for SwapReq accesses (Ratio)
system.cpu.dcache.SwapReq.missRate::total     0.100000                       # miss rate for SwapReq accesses (Ratio)
system.cpu.dcache.SwapReq.avgMissLatency::cpu.data 37333.333333                       # average SwapReq miss latency ((Tick/Count))
system.cpu.dcache.SwapReq.avgMissLatency::total 37333.333333                       # average SwapReq miss latency ((Tick/Count))
system.cpu.dcache.SwapReq.mshrMisses::cpu.data            3                       # number of SwapReq MSHR misses (Count)
system.cpu.dcache.SwapReq.mshrMisses::total            3                       # number of SwapReq MSHR misses (Count)
system.cpu.dcache.SwapReq.mshrMissLatency::cpu.data       109000                       # number of SwapReq MSHR miss ticks (Tick)
system.cpu.dcache.SwapReq.mshrMissLatency::total       109000                       # number of SwapReq MSHR miss ticks (Tick)
system.cpu.dcache.SwapReq.mshrMissRate::cpu.data     0.100000                       # mshr miss rate for SwapReq accesses (Ratio)
system.cpu.dcache.SwapReq.mshrMissRate::total     0.100000                       # mshr miss rate for SwapReq accesses (Ratio)
system.cpu.dcache.SwapReq.avgMshrMissLatency::cpu.data 36333.333333                       # average SwapReq mshr miss latency ((Tick/Count))
system.cpu.dcache.SwapReq.avgMshrMissLatency::total 36333.333333                       # average SwapReq mshr miss latency ((Tick/Count))
system.cpu.dcache.WriteLineReq.misses::cpu.data          131                       # number of WriteLineReq misses (Count)
system.cpu.dcache.WriteLineReq.misses::total          131                       # number of WriteLineReq misses (Count)
system.cpu.dcache.WriteLineReq.missLatency::cpu.data      4172908                       # number of WriteLineReq miss ticks (Tick)
system.cpu.dcache.WriteLineReq.missLatency::total      4172908                       # number of WriteLineReq miss ticks (Tick)
system.cpu.dcache.WriteLineReq.accesses::cpu.data          131                       # number of WriteLineReq accesses(hits+misses) (Count)
system.cpu.dcache.WriteLineReq.accesses::total          131                       # number of WriteLineReq accesses(hits+misses) (Count)
system.cpu.dcache.WriteLineReq.missRate::cpu.data            1                       # miss rate for WriteLineReq accesses (Ratio)
system.cpu.dcache.WriteLineReq.missRate::total            1                       # miss rate for WriteLineReq accesses (Ratio)
system.cpu.dcache.WriteLineReq.avgMissLatency::cpu.data 31854.259542                       # average WriteLineReq miss latency ((Tick/Count))
system.cpu.dcache.WriteLineReq.avgMissLatency::total 31854.259542                       # average WriteLineReq miss latency ((Tick/Count))
system.cpu.dcache.WriteLineReq.mshrMisses::cpu.data          131                       # number of WriteLineReq MSHR misses (Count)
system.cpu.dcache.WriteLineReq.mshrMisses::total          131                       # number of WriteLineReq MSHR misses (Count)
system.cpu.dcache.WriteLineReq.mshrMissLatency::cpu.data      4041908                       # number of WriteLineReq MSHR miss ticks (Tick)
system.cpu.dcache.WriteLineReq.mshrMissLatency::total      4041908                       # number of WriteLineReq MSHR miss ticks (Tick)
system.cpu.dcache.WriteLineReq.mshrMissRate::cpu.data            1                       # mshr miss rate for WriteLineReq accesses (Ratio)
system.cpu.dcache.WriteLineReq.mshrMissRate::total            1                       # mshr miss rate for WriteLineReq accesses (Ratio)
system.cpu.dcache.WriteLineReq.avgMshrMissLatency::cpu.data 30854.259542                       # average WriteLineReq mshr miss latency ((Tick/Count))
system.cpu.dcache.WriteLineReq.avgMshrMissLatency::total 30854.259542                       # average WriteLineReq mshr miss latency ((Tick/Count))
system.cpu.dcache.WriteReq.hits::cpu.data     20200589                       # number of WriteReq hits (Count)
system.cpu.dcache.WriteReq.hits::total       20200589                       # number of WriteReq hits (Count)
system.cpu.dcache.WriteReq.misses::cpu.data         5527                       # number of WriteReq misses (Count)
system.cpu.dcache.WriteReq.misses::total         5527                       # number of WriteReq misses (Count)
system.cpu.dcache.WriteReq.missLatency::cpu.data    330232577                       # number of WriteReq miss ticks (Tick)
system.cpu.dcache.WriteReq.missLatency::total    330232577                       # number of WriteReq miss ticks (Tick)
system.cpu.dcache.WriteReq.accesses::cpu.data     20206116                       # number of WriteReq accesses(hits+misses) (Count)
system.cpu.dcache.WriteReq.accesses::total     20206116                       # number of WriteReq accesses(hits+misses) (Count)
system.cpu.dcache.WriteReq.missRate::cpu.data     0.000274                       # miss rate for WriteReq accesses (Ratio)
system.cpu.dcache.WriteReq.missRate::total     0.000274                       # miss rate for WriteReq accesses (Ratio)
system.cpu.dcache.WriteReq.avgMissLatency::cpu.data 59748.973584                       # average WriteReq miss latency ((Tick/Count))
system.cpu.dcache.WriteReq.avgMissLatency::total 59748.973584                       # average WriteReq miss latency ((Tick/Count))
system.cpu.dcache.WriteReq.mshrHits::cpu.data         3413                       # number of WriteReq MSHR hits (Count)
system.cpu.dcache.WriteReq.mshrHits::total         3413                       # number of WriteReq MSHR hits (Count)
system.cpu.dcache.WriteReq.mshrMisses::cpu.data         2114                       # number of WriteReq MSHR misses (Count)
system.cpu.dcache.WriteReq.mshrMisses::total         2114                       # number of WriteReq MSHR misses (Count)
system.cpu.dcache.WriteReq.mshrMissLatency::cpu.data    126505285                       # number of WriteReq MSHR miss ticks (Tick)
system.cpu.dcache.WriteReq.mshrMissLatency::total    126505285                       # number of WriteReq MSHR miss ticks (Tick)
system.cpu.dcache.WriteReq.mshrMissRate::cpu.data     0.000105                       # mshr miss rate for WriteReq accesses (Ratio)
system.cpu.dcache.WriteReq.mshrMissRate::total     0.000105                       # mshr miss rate for WriteReq accesses (Ratio)
system.cpu.dcache.WriteReq.avgMshrMissLatency::cpu.data 59841.667455                       # average WriteReq mshr miss latency ((Tick/Count))
system.cpu.dcache.WriteReq.avgMshrMissLatency::total 59841.667455                       # average WriteReq mshr miss latency ((Tick/Count))
system.cpu.dcache.power_state.pwrStateResidencyTicks::UNDEFINED  73498021000                       # Cumulative time (in ticks) in various power states (Tick)
system.cpu.dcache.tags.tagsInUse          1023.498427                       # Average ticks per tags in use ((Tick/Count))
system.cpu.dcache.tags.totalRefs             47883903                       # Total number of references to valid blocks. (Count)
system.cpu.dcache.tags.sampledRefs            1583968                       # Sample count of references to valid blocks. (Count)
system.cpu.dcache.tags.avgRefs              30.230347                       # Average number of references to valid blocks. ((Count/Count))
system.cpu.dcache.tags.warmupTick              253500                       # The tick when the warmup percentage was hit. (Tick)
system.cpu.dcache.tags.occupancies::cpu.data  1023.498427                       # Average occupied blocks per tick, per requestor ((Count/Tick))
system.cpu.dcache.tags.avgOccs::cpu.data     0.999510                       # Average percentage of cache occupancy ((Ratio/Tick))
system.cpu.dcache.tags.avgOccs::total        0.999510                       # Average percentage of cache occupancy ((Ratio/Tick))
system.cpu.dcache.tags.occupanciesTaskId::1024         1024                       # Occupied blocks per task id (Count)
system.cpu.dcache.tags.ageTaskId_1024::0          177                       # Occupied blocks per task id, per block age (Count)
system.cpu.dcache.tags.ageTaskId_1024::1          433                       # Occupied blocks per task id, per block age (Count)
system.cpu.dcache.tags.ageTaskId_1024::2          180                       # Occupied blocks per task id, per block age (Count)
system.cpu.dcache.tags.ageTaskId_1024::3           39                       # Occupied blocks per task id, per block age (Count)
system.cpu.dcache.tags.ageTaskId_1024::4          195                       # Occupied blocks per task id, per block age (Count)
system.cpu.dcache.tags.ratioOccsTaskId::1024            1                       # Ratio of occupied blocks and all blocks, per task id (Ratio)
system.cpu.dcache.tags.tagAccesses          243253356                       # Number of tag accesses (Count)
system.cpu.dcache.tags.dataAccesses         243253356                       # Number of data accesses (Count)
system.cpu.dcache.tags.power_state.pwrStateResidencyTicks::UNDEFINED  73498021000                       # Cumulative time (in ticks) in various power states (Tick)
system.cpu.decode.idleCycles                 17575104                       # Number of cycles decode is idle (Cycle)
system.cpu.decode.blockedCycles              75902930                       # Number of cycles decode is blocked (Cycle)
system.cpu.decode.runCycles                  49741484                       # Number of cycles decode is running (Cycle)
system.cpu.decode.unblockCycles               3608809                       # Number of cycles decode is unblocking (Cycle)
system.cpu.decode.squashCycles                  40946                       # Number of cycles decode is squashing (Cycle)
system.cpu.decode.branchResolved               775353                       # Number of times decode resolved a branch (Count)
system.cpu.decode.branchMispred                   742                       # Number of times decode detected a branch misprediction (Count)
system.cpu.decode.decodedInsts              379862021                       # Number of instructions handled by decode (Count)
system.cpu.decode.squashedInsts                  2508                       # Number of squashed instructions handled by decode (Count)
system.cpu.fetch.icacheStallCycles           23191697                       # Number of cycles fetch is stalled on an Icache miss (Cycle)
system.cpu.fetch.insts                      359819432                       # Number of instructions fetch has processed (Count)
system.cpu.fetch.branches                    25183516                       # Number of branches that fetch encountered (Count)
system.cpu.fetch.predictedBranches             817606                       # Number of branches that fetch has predicted taken (Count)
system.cpu.fetch.cycles                     123633166                       # Number of cycles fetch has run and was not squashing or blocked (Cycle)
system.cpu.fetch.squashCycles                   83344                       # Number of cycles fetch has spent squashing (Cycle)
system.cpu.fetch.miscStallCycles                  355                       # Number of cycles fetch has spent waiting on interrupts, or bad addresses, or out of MSHRs (Cycle)
system.cpu.fetch.pendingTrapStallCycles          2357                       # Number of stall cycles due to pending traps (Cycle)
system.cpu.fetch.icacheWaitRetryStallCycles           26                       # Number of stall cycles due to full MSHR (Cycle)
system.cpu.fetch.cacheLines                  23125245                       # Number of cache lines fetched (Count)
system.cpu.fetch.icacheSquashes                  8180                       # Number of outstanding Icache misses that were squashed (Count)
system.cpu.fetch.nisnDist::samples          146869273                       # Number of instructions fetched each cycle (Total) (Count)
system.cpu.fetch.nisnDist::mean              2.588782                       # Number of instructions fetched each cycle (Total) (Count)
system.cpu.fetch.nisnDist::stdev             3.592238                       # Number of instructions fetched each cycle (Total) (Count)
system.cpu.fetch.nisnDist::underflows               0      0.00%      0.00% # Number of instructions fetched each cycle (Total) (Count)
system.cpu.fetch.nisnDist::0                 90684572     61.75%     61.75% # Number of instructions fetched each cycle (Total) (Count)
system.cpu.fetch.nisnDist::1                   138125      0.09%     61.84% # Number of instructions fetched each cycle (Total) (Count)
system.cpu.fetch.nisnDist::2                  9576486      6.52%     68.36% # Number of instructions fetched each cycle (Total) (Count)
system.cpu.fetch.nisnDist::3                   437932      0.30%     68.66% # Number of instructions fetched each cycle (Total) (Count)
system.cpu.fetch.nisnDist::4                  1470398      1.00%     69.66% # Number of instructions fetched each cycle (Total) (Count)
system.cpu.fetch.nisnDist::5                   169211      0.12%     69.77% # Number of instructions fetched each cycle (Total) (Count)
system.cpu.fetch.nisnDist::6                  1077275      0.73%     70.51% # Number of instructions fetched each cycle (Total) (Count)
system.cpu.fetch.nisnDist::7                   105833      0.07%     70.58% # Number of instructions fetched each cycle (Total) (Count)
system.cpu.fetch.nisnDist::8                 43209441     29.42%    100.00% # Number of instructions fetched each cycle (Total) (Count)
system.cpu.fetch.nisnDist::overflows                0      0.00%    100.00% # Number of instructions fetched each cycle (Total) (Count)
system.cpu.fetch.nisnDist::min_value                0                       # Number of instructions fetched each cycle (Total) (Count)
system.cpu.fetch.nisnDist::max_value                8                       # Number of instructions fetched each cycle (Total) (Count)
system.cpu.fetch.nisnDist::total            146869273                       # Number of instructions fetched each cycle (Total) (Count)
system.cpu.fetch.branchRate                  0.171321                       # Number of branch fetches per cycle (Ratio)
system.cpu.fetch.rate                        2.447817                       # Number of inst fetches per cycle ((Count/Cycle))
system.cpu.icache.demandHits::cpu.inst       23122796                       # number of demand (read+write) hits (Count)
system.cpu.icache.demandHits::total          23122796                       # number of demand (read+write) hits (Count)
system.cpu.icache.overallHits::cpu.inst      23122796                       # number of overall hits (Count)
system.cpu.icache.overallHits::total         23122796                       # number of overall hits (Count)
system.cpu.icache.demandMisses::cpu.inst         2449                       # number of demand (read+write) misses (Count)
system.cpu.icache.demandMisses::total            2449                       # number of demand (read+write) misses (Count)
system.cpu.icache.overallMisses::cpu.inst         2449                       # number of overall misses (Count)
system.cpu.icache.overallMisses::total           2449                       # number of overall misses (Count)
system.cpu.icache.demandMissLatency::cpu.inst    162049499                       # number of demand (read+write) miss ticks (Tick)
system.cpu.icache.demandMissLatency::total    162049499                       # number of demand (read+write) miss ticks (Tick)
system.cpu.icache.overallMissLatency::cpu.inst    162049499                       # number of overall miss ticks (Tick)
system.cpu.icache.overallMissLatency::total    162049499                       # number of overall miss ticks (Tick)
system.cpu.icache.demandAccesses::cpu.inst     23125245                       # number of demand (read+write) accesses (Count)
system.cpu.icache.demandAccesses::total      23125245                       # number of demand (read+write) accesses (Count)
system.cpu.icache.overallAccesses::cpu.inst     23125245                       # number of overall (read+write) accesses (Count)
system.cpu.icache.overallAccesses::total     23125245                       # number of overall (read+write) accesses (Count)
system.cpu.icache.demandMissRate::cpu.inst     0.000106                       # miss rate for demand accesses (Ratio)
system.cpu.icache.demandMissRate::total      0.000106                       # miss rate for demand accesses (Ratio)
system.cpu.icache.overallMissRate::cpu.inst     0.000106                       # miss rate for overall accesses (Ratio)
system.cpu.icache.overallMissRate::total     0.000106                       # miss rate for overall accesses (Ratio)
system.cpu.icache.demandAvgMissLatency::cpu.inst 66169.660678                       # average overall miss latency in ticks ((Tick/Count))
system.cpu.icache.demandAvgMissLatency::total 66169.660678                       # average overall miss latency in ticks ((Tick/Count))
system.cpu.icache.overallAvgMissLatency::cpu.inst 66169.660678                       # average overall miss latency ((Tick/Count))
system.cpu.icache.overallAvgMissLatency::total 66169.660678                       # average overall miss latency ((Tick/Count))
system.cpu.icache.blockedCycles::no_mshrs          586                       # number of cycles access was blocked (Cycle)
system.cpu.icache.blockedCycles::no_targets            0                       # number of cycles access was blocked (Cycle)
system.cpu.icache.blockedCauses::no_mshrs            9                       # number of times access was blocked (Count)
system.cpu.icache.blockedCauses::no_targets            0                       # number of times access was blocked (Count)
system.cpu.icache.avgBlocked::no_mshrs      65.111111                       # average number of cycles each access was blocked ((Cycle/Count))
system.cpu.icache.avgBlocked::no_targets          nan                       # average number of cycles each access was blocked ((Cycle/Count))
system.cpu.icache.writebacks::writebacks         1654                       # number of writebacks (Count)
system.cpu.icache.writebacks::total              1654                       # number of writebacks (Count)
system.cpu.icache.demandMshrHits::cpu.inst          539                       # number of demand (read+write) MSHR hits (Count)
system.cpu.icache.demandMshrHits::total           539                       # number of demand (read+write) MSHR hits (Count)
system.cpu.icache.overallMshrHits::cpu.inst          539                       # number of overall MSHR hits (Count)
system.cpu.icache.overallMshrHits::total          539                       # number of overall MSHR hits (Count)
system.cpu.icache.demandMshrMisses::cpu.inst         1910                       # number of demand (read+write) MSHR misses (Count)
system.cpu.icache.demandMshrMisses::total         1910                       # number of demand (read+write) MSHR misses (Count)
system.cpu.icache.overallMshrMisses::cpu.inst         1910                       # number of overall MSHR misses (Count)
system.cpu.icache.overallMshrMisses::total         1910                       # number of overall MSHR misses (Count)
system.cpu.icache.demandMshrMissLatency::cpu.inst    126835000                       # number of demand (read+write) MSHR miss ticks (Tick)
system.cpu.icache.demandMshrMissLatency::total    126835000                       # number of demand (read+write) MSHR miss ticks (Tick)
system.cpu.icache.overallMshrMissLatency::cpu.inst    126835000                       # number of overall MSHR miss ticks (Tick)
system.cpu.icache.overallMshrMissLatency::total    126835000                       # number of overall MSHR miss ticks (Tick)
system.cpu.icache.demandMshrMissRate::cpu.inst     0.000083                       # mshr miss ratio for demand accesses (Ratio)
system.cpu.icache.demandMshrMissRate::total     0.000083                       # mshr miss ratio for demand accesses (Ratio)
system.cpu.icache.overallMshrMissRate::cpu.inst     0.000083                       # mshr miss ratio for overall accesses (Ratio)
system.cpu.icache.overallMshrMissRate::total     0.000083                       # mshr miss ratio for overall accesses (Ratio)
system.cpu.icache.demandAvgMshrMissLatency::cpu.inst 66405.759162                       # average overall mshr miss latency ((Tick/Count))
system.cpu.icache.demandAvgMshrMissLatency::total 66405.759162                       # average overall mshr miss latency ((Tick/Count))
system.cpu.icache.overallAvgMshrMissLatency::cpu.inst 66405.759162                       # average overall mshr miss latency ((Tick/Count))
system.cpu.icache.overallAvgMshrMissLatency::total 66405.759162                       # average overall mshr miss latency ((Tick/Count))
system.cpu.icache.replacements                   1654                       # number of replacements (Count)
system.cpu.icache.ReadReq.hits::cpu.inst     23122796                       # number of ReadReq hits (Count)
system.cpu.icache.ReadReq.hits::total        23122796                       # number of ReadReq hits (Count)
system.cpu.icache.ReadReq.misses::cpu.inst         2449                       # number of ReadReq misses (Count)
system.cpu.icache.ReadReq.misses::total          2449                       # number of ReadReq misses (Count)
system.cpu.icache.ReadReq.missLatency::cpu.inst    162049499                       # number of ReadReq miss ticks (Tick)
system.cpu.icache.ReadReq.missLatency::total    162049499                       # number of ReadReq miss ticks (Tick)
system.cpu.icache.ReadReq.accesses::cpu.inst     23125245                       # number of ReadReq accesses(hits+misses) (Count)
system.cpu.icache.ReadReq.accesses::total     23125245                       # number of ReadReq accesses(hits+misses) (Count)
system.cpu.icache.ReadReq.missRate::cpu.inst     0.000106                       # miss rate for ReadReq accesses (Ratio)
system.cpu.icache.ReadReq.missRate::total     0.000106                       # miss rate for ReadReq accesses (Ratio)
system.cpu.icache.ReadReq.avgMissLatency::cpu.inst 66169.660678                       # average ReadReq miss latency ((Tick/Count))
system.cpu.icache.ReadReq.avgMissLatency::total 66169.660678                       # average ReadReq miss latency ((Tick/Count))
system.cpu.icache.ReadReq.mshrHits::cpu.inst          539                       # number of ReadReq MSHR hits (Count)
system.cpu.icache.ReadReq.mshrHits::total          539                       # number of ReadReq MSHR hits (Count)
system.cpu.icache.ReadReq.mshrMisses::cpu.inst         1910                       # number of ReadReq MSHR misses (Count)
system.cpu.icache.ReadReq.mshrMisses::total         1910                       # number of ReadReq MSHR misses (Count)
system.cpu.icache.ReadReq.mshrMissLatency::cpu.inst    126835000                       # number of ReadReq MSHR miss ticks (Tick)
system.cpu.icache.ReadReq.mshrMissLatency::total    126835000                       # number of ReadReq MSHR miss ticks (Tick)
system.cpu.icache.ReadReq.mshrMissRate::cpu.inst     0.000083                       # mshr miss rate for ReadReq accesses (Ratio)
system.cpu.icache.ReadReq.mshrMissRate::total     0.000083                       # mshr miss rate for ReadReq accesses (Ratio)
system.cpu.icache.ReadReq.avgMshrMissLatency::cpu.inst 66405.759162                       # average ReadReq mshr miss latency ((Tick/Count))
system.cpu.icache.ReadReq.avgMshrMissLatency::total 66405.759162                       # average ReadReq mshr miss latency ((Tick/Count))
system.cpu.icache.power_state.pwrStateResidencyTicks::UNDEFINED  73498021000                       # Cumulative time (in ticks) in various power states (Tick)
system.cpu.icache.tags.tagsInUse           255.947290                       # Average ticks per tags in use ((Tick/Count))
system.cpu.icache.tags.totalRefs               187096                       # Total number of references to valid blocks. (Count)
system.cpu.icache.tags.sampledRefs               1654                       # Sample count of references to valid blocks. (Count)
system.cpu.icache.tags.avgRefs             113.117291                       # Average number of references to valid blocks. ((Count/Count))
system.cpu.icache.tags.warmupTick               87500                       # The tick when the warmup percentage was hit. (Tick)
system.cpu.icache.tags.occupancies::cpu.inst   255.947290                       # Average occupied blocks per tick, per requestor ((Count/Tick))
system.cpu.icache.tags.avgOccs::cpu.inst     0.999794                       # Average percentage of cache occupancy ((Ratio/Tick))
system.cpu.icache.tags.avgOccs::total        0.999794                       # Average percentage of cache occupancy ((Ratio/Tick))
system.cpu.icache.tags.occupanciesTaskId::1024          256                       # Occupied blocks per task id (Count)
system.cpu.icache.tags.ageTaskId_1024::4          256                       # Occupied blocks per task id, per block age (Count)
system.cpu.icache.tags.ratioOccsTaskId::1024            1                       # Ratio of occupied blocks and all blocks, per task id (Ratio)
system.cpu.icache.tags.tagAccesses           92502890                       # Number of tag accesses (Count)
system.cpu.icache.tags.dataAccesses          92502890                       # Number of data accesses (Count)
system.cpu.icache.tags.power_state.pwrStateResidencyTicks::UNDEFINED  73498021000                       # Cumulative time (in ticks) in various power states (Tick)
system.cpu.iew.idleCycles                           0                       # Number of cycles IEW is idle (Cycle)
system.cpu.iew.squashCycles                     40946                       # Number of cycles IEW is squashing (Cycle)
system.cpu.iew.blockCycles                   35963911                       # Number of cycles IEW is blocking (Cycle)
system.cpu.iew.unblockCycles                   136338                       # Number of cycles IEW is unblocking (Cycle)
system.cpu.iew.dispatchedInsts              379354176                       # Number of instructions dispatched to IQ (Count)
system.cpu.iew.dispSquashedInsts                 6199                       # Number of squashed instructions skipped by dispatch (Count)
system.cpu.iew.dispLoadInsts                 51157024                       # Number of dispatched load instructions (Count)
system.cpu.iew.dispStoreInsts                20286001                       # Number of dispatched store instructions (Count)
system.cpu.iew.dispNonSpecInsts                   164                       # Number of dispatched non-speculative instructions (Count)
system.cpu.iew.iqFullEvents                     23410                       # Number of times the IQ has become full, causing a stall (Count)
system.cpu.iew.lsqFullEvents                    25968                       # Number of times the LSQ has become full, causing a stall (Count)
system.cpu.iew.memOrderViolationEvents           8859                       # Number of memory order violations (Count)
system.cpu.iew.predictedTakenIncorrect          15349                       # Number of branches that were predicted taken incorrectly (Count)
system.cpu.iew.predictedNotTakenIncorrect        18506                       # Number of branches that were predicted not taken incorrectly (Count)
system.cpu.iew.branchMispredicts                33855                       # Number of branch mispredicts detected at execute (Count)
system.cpu.iew.instsToCommit                378676060                       # Cumulative count of insts sent to commit (Count)
system.cpu.iew.writebackCount               378653171                       # Cumulative count of insts written-back (Count)
system.cpu.iew.producerInst                 323930081                       # Number of instructions producing a value (Count)
system.cpu.iew.consumerInst                 434189541                       # Number of instructions consuming a value (Count)
system.cpu.iew.wbRate                        2.575941                       # Insts written-back per cycle ((Count/Cycle))
system.cpu.iew.wbFanout                      0.746057                       # Average fanout of values written-back ((Count/Count))
system.cpu.lsq0.forwLoads                    10868482                       # Number of loads that had data forwarded from stores (Count)
system.cpu.lsq0.squashedLoads                  230874                       # Number of loads squashed (Count)
system.cpu.lsq0.ignoredResponses                   46                       # Number of memory responses ignored because the instruction is squashed (Count)
system.cpu.lsq0.memOrderViolation                8859                       # Number of memory ordering violations (Count)
system.cpu.lsq0.squashedStores                  79710                       # Number of stores squashed (Count)
system.cpu.lsq0.rescheduledLoads                 9245                       # Number of loads that were rescheduled (Count)
system.cpu.lsq0.blockedByCache                   2238                       # Number of times an access to memory failed due to the cache being blocked (Count)
system.cpu.lsq0.loadToUse::samples           50926121                       # Distribution of cycle latency between the first time a load is issued and its completion (Unspecified)
system.cpu.lsq0.loadToUse::mean              5.995753                       # Distribution of cycle latency between the first time a load is issued and its completion (Unspecified)
system.cpu.lsq0.loadToUse::stdev            21.628103                       # Distribution of cycle latency between the first time a load is issued and its completion (Unspecified)
system.cpu.lsq0.loadToUse::0-9               49173421     96.56%     96.56% # Distribution of cycle latency between the first time a load is issued and its completion (Unspecified)
system.cpu.lsq0.loadToUse::10-19                 2836      0.01%     96.56% # Distribution of cycle latency between the first time a load is issued and its completion (Unspecified)
system.cpu.lsq0.loadToUse::20-29               965041      1.89%     98.46% # Distribution of cycle latency between the first time a load is issued and its completion (Unspecified)
system.cpu.lsq0.loadToUse::30-39                 4080      0.01%     98.47% # Distribution of cycle latency between the first time a load is issued and its completion (Unspecified)
system.cpu.lsq0.loadToUse::40-49                  900      0.00%     98.47% # Distribution of cycle latency between the first time a load is issued and its completion (Unspecified)
system.cpu.lsq0.loadToUse::50-59                  255      0.00%     98.47% # Distribution of cycle latency between the first time a load is issued and its completion (Unspecified)
[...]
system.mem_ctrls.dram.perBankWrBursts::10            2                       # Per bank write bursts (Count)
system.mem_ctrls.dram.perBankWrBursts::11           10                       # Per bank write bursts (Count)
system.mem_ctrls.dram.perBankWrBursts::12           14                       # Per bank write bursts (Count)
system.mem_ctrls.dram.perBankWrBursts::13           19                       # Per bank write bursts (Count)
system.mem_ctrls.dram.perBankWrBursts::14            2                       # Per bank write bursts (Count)
system.mem_ctrls.dram.perBankWrBursts::15           55                       # Per bank write bursts (Count)
system.mem_ctrls.dram.totQLat                11296250                       # Total ticks spent queuing (Tick)
system.mem_ctrls.dram.totBusLat               2750000                       # Total ticks spent in databus transfers (Tick)
system.mem_ctrls.dram.totMemAccLat           21608750                       # Total ticks spent from burst creation until serviced by the DRAM (Tick)
system.mem_ctrls.dram.avgQLat                20538.64                       # Average queueing delay per DRAM burst ((Tick/Count))
system.mem_ctrls.dram.avgBusLat               5000.00                       # Average bus latency per DRAM burst ((Tick/Count))
system.mem_ctrls.dram.avgMemAccLat           39288.64                       # Average memory access latency per DRAM burst ((Tick/Count))
system.mem_ctrls.dram.readRowHits                 344                       # Number of row buffer hits during reads (Count)
system.mem_ctrls.dram.writeRowHits                165                       # Number of row buffer hits during writes (Count)
system.mem_ctrls.dram.readRowHitRate            62.55                       # Row buffer hit rate for reads (Ratio)
system.mem_ctrls.dram.writeRowHitRate           72.05                       # Row buffer hit rate for writes (Ratio)
system.mem_ctrls.dram.bytesPerActivate::samples          260                       # Bytes accessed per row activation (Byte)
system.mem_ctrls.dram.bytesPerActivate::mean   183.876923                       # Bytes accessed per row activation (Byte)
system.mem_ctrls.dram.bytesPerActivate::gmean   130.691018                       # Bytes accessed per row activation (Byte)
system.mem_ctrls.dram.bytesPerActivate::stdev   182.013068                       # Bytes accessed per row activation (Byte)
system.mem_ctrls.dram.bytesPerActivate::0-127          114     43.85%     43.85% # Bytes accessed per row activation (Byte)
system.mem_ctrls.dram.bytesPerActivate::128-255           81     31.15%     75.00% # Bytes accessed per row activation (Byte)
system.mem_ctrls.dram.bytesPerActivate::256-383           28     10.77%     85.77% # Bytes accessed per row activation (Byte)
system.mem_ctrls.dram.bytesPerActivate::384-511           15      5.77%     91.54% # Bytes accessed per row activation (Byte)
system.mem_ctrls.dram.bytesPerActivate::512-639           10      3.85%     95.38% # Bytes accessed per row activation (Byte)
system.mem_ctrls.dram.bytesPerActivate::640-767            6      2.31%     97.69% # Bytes accessed per row activation (Byte)
system.mem_ctrls.dram.bytesPerActivate::768-895            3      1.15%     98.85% # Bytes accessed per row activation (Byte)
system.mem_ctrls.dram.bytesPerActivate::896-1023            1      0.38%     99.23% # Bytes accessed per row activation (Byte)
system.mem_ctrls.dram.bytesPerActivate::1024-1151            2      0.77%    100.00% # Bytes accessed per row activation (Byte)
system.mem_ctrls.dram.bytesPerActivate::total          260                       # Bytes accessed per row activation (Byte)
system.mem_ctrls.dram.bytesRead                 35200                       # Total bytes read (Byte)
system.mem_ctrls.dram.bytesWritten              14656                       # Total bytes written (Byte)
system.mem_ctrls.dram.avgRdBW             1279.209216                       # Average DRAM read bandwidth in MiBytes/s ((Byte/Second))
system.mem_ctrls.dram.avgWrBW              532.616201                       # Average DRAM write bandwidth in MiBytes/s ((Byte/Second))
system.mem_ctrls.dram.peakBW                 12800.00                       # Theoretical peak bandwidth in MiByte/s ((Byte/Second))
system.mem_ctrls.dram.busUtil                   14.15                       # Data bus utilization in percentage (Ratio)
system.mem_ctrls.dram.busUtilRead                9.99                       # Data bus utilization in percentage for reads (Ratio)
system.mem_ctrls.dram.busUtilWrite               4.16                       # Data bus utilization in percentage for writes (Ratio)
system.mem_ctrls.dram.pageHitRate               65.34                       # Row buffer hit rate, read and write combined (Ratio)
system.mem_ctrls.dram.power_state.pwrStateResidencyTicks::UNDEFINED     27517000                       # Cumulative time (in ticks) in various power states (Tick)
system.mem_ctrls.dram.rank0.actEnergy          971040                       # Energy for activate commands per rank (pJ) (Joule)
system.mem_ctrls.dram.rank0.preEnergy          500940                       # Energy for precharge commands per rank (pJ) (Joule)
system.mem_ctrls.dram.rank0.readEnergy        2127720                       # Energy for read commands per rank (pJ) (Joule)
system.mem_ctrls.dram.rank0.writeEnergy        485460                       # Energy for write commands per rank (pJ) (Joule)
system.mem_ctrls.dram.rank0.refreshEnergy 1843920.000000                       # Energy for refresh commands per rank (pJ) (Joule)
system.mem_ctrls.dram.rank0.actBackEnergy     12273810                       # Energy for active background per rank (pJ) (Joule)
system.mem_ctrls.dram.rank0.preBackEnergy       230880                       # Energy for precharge background per rank (pJ) (Joule)
system.mem_ctrls.dram.rank0.actPowerDownEnergy            0                       # Energy for active power-down per rank (pJ) (Joule)
system.mem_ctrls.dram.rank0.prePowerDownEnergy            0                       # Energy for precharge power-down per rank (pJ) (Joule)
system.mem_ctrls.dram.rank0.selfRefreshEnergy            0                       # Energy for self refresh per rank (pJ) (Joule)
system.mem_ctrls.dram.rank0.totalEnergy      18433770                       # Total energy per rank (pJ) (Joule)
system.mem_ctrls.dram.rank0.averagePower   669.904786                       # Core power per rank (mW) (Watt)
system.mem_ctrls.dram.rank0.totalIdleTime            0                       # Total Idle time Per DRAM Rank (Tick)
system.mem_ctrls.dram.rank0.pwrStateTime::IDLE       517750                       # Time in different power states (Tick)
system.mem_ctrls.dram.rank0.pwrStateTime::REF       780000                       # Time in different power states (Tick)
system.mem_ctrls.dram.rank0.pwrStateTime::SREF            0                       # Time in different power states (Tick)
system.mem_ctrls.dram.rank0.pwrStateTime::PRE_PDN            0                       # Time in different power states (Tick)
system.mem_ctrls.dram.rank0.pwrStateTime::ACT     26219250                       # Time in different power states (Tick)
system.mem_ctrls.dram.rank0.pwrStateTime::ACT_PDN            0                       # Time in different power states (Tick)
system.mem_ctrls.dram.rank1.actEnergy          956760                       # Energy for activate commands per rank (pJ) (Joule)
system.mem_ctrls.dram.rank1.preEnergy          485760                       # Energy for precharge commands per rank (pJ) (Joule)
system.mem_ctrls.dram.rank1.readEnergy        1799280                       # Energy for read commands per rank (pJ) (Joule)
system.mem_ctrls.dram.rank1.writeEnergy        709920                       # Energy for write commands per rank (pJ) (Joule)
system.mem_ctrls.dram.rank1.refreshEnergy 1843920.000000                       # Energy for refresh commands per rank (pJ) (Joule)
system.mem_ctrls.dram.rank1.actBackEnergy     12428280                       # Energy for active background per rank (pJ) (Joule)
system.mem_ctrls.dram.rank1.preBackEnergy       100800                       # Energy for precharge background per rank (pJ) (Joule)
system.mem_ctrls.dram.rank1.actPowerDownEnergy            0                       # Energy for active power-down per rank (pJ) (Joule)
system.mem_ctrls.dram.rank1.prePowerDownEnergy            0                       # Energy for precharge power-down per rank (pJ) (Joule)
system.mem_ctrls.dram.rank1.selfRefreshEnergy            0                       # Energy for self refresh per rank (pJ) (Joule)
system.mem_ctrls.dram.rank1.totalEnergy      18324720                       # Total energy per rank (pJ) (Joule)
system.mem_ctrls.dram.rank1.averagePower   665.941781                       # Core power per rank (mW) (Watt)
system.mem_ctrls.dram.rank1.totalIdleTime            0                       # Total Idle time Per DRAM Rank (Tick)
system.mem_ctrls.dram.rank1.pwrStateTime::IDLE       178250                       # Time in different power states (Tick)
system.mem_ctrls.dram.rank1.pwrStateTime::REF       780000                       # Time in different power states (Tick)
system.mem_ctrls.dram.rank1.pwrStateTime::SREF            0                       # Time in different power states (Tick)
system.mem_ctrls.dram.rank1.pwrStateTime::PRE_PDN            0                       # Time in different power states (Tick)
system.mem_ctrls.dram.rank1.pwrStateTime::ACT     26558750                       # Time in different power states (Tick)
system.mem_ctrls.dram.rank1.pwrStateTime::ACT_PDN            0                       # Time in different power states (Tick)
system.mem_ctrls.power_state.pwrStateResidencyTicks::UNDEFINED     27517000                       # Cumulative time (in ticks) in various power states (Tick)
system.membus.transDist::ReadResp                 527                       # Transaction distribution (Count)
system.membus.transDist::WritebackDirty           218                       # Transaction distribution (Count)
system.membus.transDist::CleanEvict               520                       # Transaction distribution (Count)
system.membus.transDist::ReadExReq                 23                       # Transaction distribution (Count)
system.membus.transDist::ReadExResp                23                       # Transaction distribution (Count)
system.membus.transDist::ReadSharedReq            527                       # Transaction distribution (Count)
system.membus.transDist::InvalidateReq              1                       # Transaction distribution (Count)
system.membus.pktCount_system.l2.mem_side_port::system.mem_ctrls.port         1839                       # Packet count per connected requestor and responder (Count)
system.membus.pktCount::total                    1839                       # Packet count per connected requestor and responder (Count)
system.membus.pktSize_system.l2.mem_side_port::system.mem_ctrls.port        49152                       # Cumulative packet size per connected requestor and responder (Byte)
system.membus.pktSize::total                    49152                       # Cumulative packet size per connected requestor and responder (Byte)
system.membus.snoops                                0                       # Total snoops (Count)
system.membus.snoopTraffic                          0                       # Total snoop traffic (Byte)
system.membus.snoopFanout::samples                551                       # Request fanout histogram (Count)
system.membus.snoopFanout::mean                     0                       # Request fanout histogram (Count)
system.membus.snoopFanout::stdev                    0                       # Request fanout histogram (Count)
system.membus.snoopFanout::underflows               0      0.00%      0.00% # Request fanout histogram (Count)
system.membus.snoopFanout::0                      551    100.00%    100.00% # Request fanout histogram (Count)
system.membus.snoopFanout::1                        0      0.00%    100.00% # Request fanout histogram (Count)
system.membus.snoopFanout::overflows                0      0.00%    100.00% # Request fanout histogram (Count)
system.membus.snoopFanout::min_value                0                       # Request fanout histogram (Count)
system.membus.snoopFanout::max_value                0                       # Request fanout histogram (Count)
system.membus.snoopFanout::total                  551                       # Request fanout histogram (Count)
system.membus.power_state.pwrStateResidencyTicks::UNDEFINED     27517000                       # Cumulative time (in ticks) in various power states (Tick)
system.membus.reqLayer0.occupancy             2296000                       # Layer occupancy (ticks) (Tick)
system.membus.reqLayer0.utilization               0.1                       # Layer utilization (Ratio)
system.membus.respLayer1.occupancy            2946000                       # Layer occupancy (ticks) (Tick)
system.membus.respLayer1.utilization              0.1                       # Layer utilization (Ratio)
system.membus.snoop_filter.totRequests           1289                       # Total number of requests made to the snoop filter. (Count)
system.membus.snoop_filter.hitSingleRequests          738                       # Number of requests hitting in the snoop filter with a single holder of the requested data. (Count)
system.membus.snoop_filter.hitMultiRequests            0                       # Number of requests hitting in the snoop filter with multiple (>1) holders of the requested data. (Count)
system.membus.snoop_filter.totSnoops                0                       # Total number of snoops made to the snoop filter. (Count)
system.membus.snoop_filter.hitSingleSnoops            0                       # Number of snoops hitting in the snoop filter with a single holder of the requested data. (Count)
system.membus.snoop_filter.hitMultiSnoops            0                       # Number of snoops hitting in the snoop filter with multiple (>1) holders of the requested data. (Count)
system.tol2bus.transDist::ReadResp                551                       # Transaction distribution (Count)
system.tol2bus.transDist::WritebackDirty          318                       # Transaction distribution (Count)
system.tol2bus.transDist::WritebackClean          234                       # Transaction distribution (Count)
system.tol2bus.transDist::CleanEvict              761                       # Transaction distribution (Count)
system.tol2bus.transDist::ReadExReq                23                       # Transaction distribution (Count)
system.tol2bus.transDist::ReadExResp               23                       # Transaction distribution (Count)
system.tol2bus.transDist::ReadCleanReq            235                       # Transaction distribution (Count)
system.tol2bus.transDist::ReadSharedReq           315                       # Transaction distribution (Count)
system.tol2bus.transDist::InvalidateReq             1                       # Transaction distribution (Count)
system.tol2bus.transDist::InvalidateResp            1                       # Transaction distribution (Count)
system.tol2bus.pktCount_system.cpu.icache.mem_side_port::system.l2.cpu_side_port          703                       # Packet count per connected requestor and responder (Count)
system.tol2bus.pktCount_system.cpu.dcache.mem_side_port::system.l2.cpu_side_port         1022                       # Packet count per connected requestor and responder (Count)
system.tol2bus.pktCount::total                   1725                       # Packet count per connected requestor and responder (Count)
system.tol2bus.pktSize_system.cpu.icache.mem_side_port::system.l2.cpu_side_port        29952                       # Cumulative packet size per connected requestor and responder (Byte)
system.tol2bus.pktSize_system.cpu.dcache.mem_side_port::system.l2.cpu_side_port        28160                       # Cumulative packet size per connected requestor and responder (Byte)
system.tol2bus.pktSize::total                   58112                       # Cumulative packet size per connected requestor and responder (Byte)
system.tol2bus.snoops                             737                       # Total snoops (Count)
system.tol2bus.snoopTraffic                     13952                       # Total snoop traffic (Byte)
system.tol2bus.snoopFanout::samples              1311                       # Request fanout histogram (Count)
system.tol2bus.snoopFanout::mean                    0                       # Request fanout histogram (Count)
system.tol2bus.snoopFanout::stdev                   0                       # Request fanout histogram (Count)
system.tol2bus.snoopFanout::underflows              0      0.00%      0.00% # Request fanout histogram (Count)
system.tol2bus.snoopFanout::0                    1311    100.00%    100.00% # Request fanout histogram (Count)
system.tol2bus.snoopFanout::1                       0      0.00%    100.00% # Request fanout histogram (Count)
system.tol2bus.snoopFanout::2                       0      0.00%    100.00% # Request fanout histogram (Count)
system.tol2bus.snoopFanout::overflows               0      0.00%    100.00% # Request fanout histogram (Count)
system.tol2bus.snoopFanout::min_value               0                       # Request fanout histogram (Count)
system.tol2bus.snoopFanout::max_value               0                       # Request fanout histogram (Count)
system.tol2bus.snoopFanout::total                1311                       # Request fanout histogram (Count)
system.tol2bus.power_state.pwrStateResidencyTicks::UNDEFINED     27517000                       # Cumulative time (in ticks) in various power states (Tick)
system.tol2bus.reqLayer0.occupancy             909000                       # Layer occupancy (ticks) (Tick)
system.tol2bus.reqLayer0.utilization              0.0                       # Layer utilization (Ratio)
system.tol2bus.respLayer0.occupancy            351000                       # Layer occupancy (ticks) (Tick)
system.tol2bus.respLayer0.utilization             0.0                       # Layer utilization (Ratio)
system.tol2bus.respLayer1.occupancy            510500                       # Layer occupancy (ticks) (Tick)
system.tol2bus.respLayer1.utilization             0.0                       # Layer utilization (Ratio)
system.tol2bus.snoop_filter.totRequests          1150                       # Total number of requests made to the snoop filter. (Count)
system.tol2bus.snoop_filter.hitSingleRequests          576                       # Number of requests hitting in the snoop filter with a single holder of the requested data. (Count)
system.tol2bus.snoop_filter.hitMultiRequests            0                       # Number of requests hitting in the snoop filter with multiple (>1) holders of the requested data. (Count)
system.tol2bus.snoop_filter.totSnoops               0                       # Total number of snoops made to the snoop filter. (Count)
system.tol2bus.snoop_filter.hitSingleSnoops            0                       # Number of snoops hitting in the snoop filter with a single holder of the requested data. (Count)
system.tol2bus.snoop_filter.hitMultiSnoops            0                       # Number of snoops hitting in the snoop filter with multiple (>1) holders of the requested data. (Count)
system.voltage_domain.voltage                       1                       # Voltage in Volts (Volt)
system.workload.inst.arm                            0                       # number of arm instructions executed (Count)
system.workload.inst.quiesce                        0                       # number of quiesce instructions executed (Count)

---------- End Simulation Statistics   ----------
