
---------- Begin Simulation Statistics ----------
simSeconds                                   0.004968                       # Number of seconds simulated (Second)
simTicks                                   4967725000                       # Number of ticks simulated (Tick)
finalTick                                  4967725000                       # Number of ticks from beginning of simulation (restored from checkpoints and never reset) (Tick)
simFreq                                  1000000000000                       # The number of ticks per simulated second ((Tick/Second))
hostSeconds                                     39.50                       # Real time elapsed on the host (Second)
hostTickRate                                125764328                       # The number of ticks simulated per host second (ticks/s) ((Tick/Second))
hostMemory                                     681144                       # Number of bytes of host memory used (Byte)
simInsts                                      9610232                       # Number of instructions simulated (Count)
simOps                                       10379994                       # Number of ops (including micro ops) simulated (Count)
hostInstRate                                   243295                       # Simulator instruction rate (inst/s) ((Count/Second))
hostOpRate                                     262782                       # Simulator op (including micro ops) rate (op/s) ((Count/Second))
system.clk_domain.clock                          1000                       # Clock period in ticks (Tick)
system.cpu.numCycles                          9935451                       # Number of cpu cycles simulated (Cycle)
system.cpu.numWorkItemsStarted                      0                       # Number of work items this cpu started (Count)
system.cpu.numWorkItemsCompleted                    0                       # Number of work items this cpu completed (Count)
system.cpu.instsAdded                        11049378                       # Number of instructions added to the IQ (excludes non-spec) (Count)
system.cpu.nonSpecInstsAdded                      386                       # Number of non-speculative instructions added to the IQ (Count)
system.cpu.instsIssued                       10905859                       # Number of instructions issued (Count)
system.cpu.squashedInstsIssued                   2375                       # Number of squashed instructions issued (Count)
system.cpu.squashedInstsExamined               669769                       # Number of squashed instructions iterated over during squash; mainly for profiling (Count)
system.cpu.squashedOperandsExamined            637519                       # Number of squashed operands that are examined and possibly removed from graph (Count)
system.cpu.squashedNonSpecRemoved                 126                       # Number of squashed non-spec instructions that were removed (Count)
system.cpu.numIssuedDist::samples             9791758                       # Number of insts issued each cycle (Count)
system.cpu.numIssuedDist::mean               1.113779                       # Number of insts issued each cycle (Count)
system.cpu.numIssuedDist::stdev              2.145421                       # Number of insts issued each cycle (Count)
system.cpu.numIssuedDist::underflows                0      0.00%      0.00% # Number of insts issued each cycle (Count)
system.cpu.numIssuedDist::0                   6812391     69.57%     69.57% # Number of insts issued each cycle (Count)
system.cpu.numIssuedDist::1                    801644      8.19%     77.76% # Number of insts issued each cycle (Count)
system.cpu.numIssuedDist::2                    436226      4.46%     82.21% # Number of insts issued each cycle (Count)
system.cpu.numIssuedDist::3                    304147      3.11%     85.32% # Number of insts issued each cycle (Count)
system.cpu.numIssuedDist::4                    476641      4.87%     90.19% # Number of insts issued each cycle (Count)
system.cpu.numIssuedDist::5                    265478      2.71%     92.90% # Number of insts issued each cycle (Count)
system.cpu.numIssuedDist::6                    160938      1.64%     94.54% # Number of insts issued each cycle (Count)
system.cpu.numIssuedDist::7                    154604      1.58%     96.12% # Number of insts issued each cycle (Count)
system.cpu.numIssuedDist::8                    379689      3.88%    100.00% # Number of insts issued each cycle (Count)
system.cpu.numIssuedDist::overflows                 0      0.00%    100.00% # Number of insts issued each cycle (Count)
system.cpu.numIssuedDist::min_value                 0                       # Number of insts issued each cycle (Count)
system.cpu.numIssuedDist::max_value                 8                       # Number of insts issued each cycle (Count)
system.cpu.numIssuedDist::total               9791758                       # Number of insts issued each cycle (Count)
system.cpu.statFuBusy::No_OpClass                   0      0.00%      0.00% # attempts to use FU when none available (Count)
system.cpu.statFuBusy::IntAlu                   21236      2.16%      2.16% # attempts to use FU when none available (Count)
system.cpu.statFuBusy::IntMult                      1      0.00%      2.16% # attempts to use FU when none available (Count)
system.cpu.statFuBusy::IntDiv                    1192      0.12%      2.28% # attempts to use FU when none available (Count)
system.cpu.statFuBusy::FloatAdd                     0      0.00%      2.28% # attempts to use FU when none available (Count)
system.cpu.statFuBusy::FloatCmp                     0      0.00%      2.28% # attempts to use FU when none available (Count)
system.cpu.statFuBusy::FloatCvt                     0      0.00%      2.28% # attempts to use FU when none available (Count)
system.cpu.statFuBusy::FloatMult                    0      0.00%      2.28% # attempts to use FU when none available (Count)
system.cpu.statFuBusy::FloatMultAcc                 0      0.00%      2.28% # attempts to use FU when none available (Count)
system.cpu.statFuBusy::FloatDiv                     0      0.00%      2.28% # attempts to use FU when none available (Count)
system.cpu.statFuBusy::FloatMisc                    0      0.00%      2.28% # attempts to use FU when none available (Count)
system.cpu.statFuBusy::FloatSqrt                    0      0.00%      2.28% # attempts to use FU when none available (Count)
system.cpu.statFuBusy::SimdAdd                      0      0.00%      2.28% # attempts to use FU when none available (Count)
system.cpu.statFuBusy::SimdAddAcc                   0      0.00%      2.28% # attempts to use FU when none available (Count)
system.cpu.statFuBusy::SimdAlu                     52      0.01%      2.29% # attempts to use FU when none available (Count)
system.cpu.statFuBusy::SimdCmp                     17      0.00%      2.29% # attempts to use FU when none available (Count)
system.cpu.statFuBusy::SimdCvt                      0      0.00%      2.29% # attempts to use FU when none available (Count)
system.cpu.statFuBusy::SimdMisc                     0      0.00%      2.29% # attempts to use FU when none available (Count)
system.cpu.statFuBusy::SimdMult                434620     44.23%     46.52% # attempts to use FU when none available (Count)
system.cpu.statFuBusy::SimdMultAcc             479889     48.84%     95.36% # attempts to use FU when none available (Count)
system.cpu.statFuBusy::SimdShift                    0      0.00%     95.36% # attempts to use FU when none available (Count)
system.cpu.statFuBusy::SimdShiftAcc                 0      0.00%     95.36% # attempts to use FU when none available (Count)
system.cpu.statFuBusy::SimdDiv                      0      0.00%     95.36% # attempts to use FU when none available (Count)
system.cpu.statFuBusy::SimdSqrt                     0      0.00%     95.36% # attempts to use FU when none available (Count)
system.cpu.statFuBusy::SimdFloatAdd                 0      0.00%     95.36% # attempts to use FU when none available (Count)
system.cpu.statFuBusy::SimdFloatAlu                 0      0.00%     95.36% # attempts to use FU when none available (Count)
system.cpu.statFuBusy::SimdFloatCmp                 0      0.00%     95.36% # attempts to use FU when none available (Count)
system.cpu.statFuBusy::SimdFloatCvt                 0      0.00%     95.36% # attempts to use FU when none available (Count)
system.cpu.statFuBusy::SimdFloatDiv                 0      0.00%     95.36% # attempts to use FU when none available (Count)
system.cpu.statFuBusy::SimdFloatMisc                0      0.00%     95.36% # attempts to use FU when none available (Count)
system.cpu.statFuBusy::SimdFloatMult                0      0.00%     95.36% # attempts to use FU when none available (Count)
system.cpu.statFuBusy::SimdFloatMultAcc             0      0.00%     95.36% # attempts to use FU when none available (Count)
system.cpu.statFuBusy::SimdFloatSqrt                0      0.00%     95.36% # attempts to use FU when none available (Count)
system.cpu.statFuBusy::SimdReduceAdd                0      0.00%     95.36% # attempts to use FU when none available (Count)
system.cpu.statFuBusy::SimdReduceAlu                0      0.00%     95.36% # attempts to use FU when none available (Count)
system.cpu.statFuBusy::SimdReduceCmp                0      0.00%     95.36% # attempts to use FU when none available (Count)
system.cpu.statFuBusy::SimdFloatReduceAdd            0      0.00%     95.36% # attempts to use FU when none available (Count)
system.cpu.statFuBusy::SimdFloatReduceCmp            0      0.00%     95.36% # attempts to use FU when none available (Count)
system.cpu.statFuBusy::SimdAes                      0      0.00%     95.36% # attempts to use FU when none available (Count)
system.cpu.statFuBusy::SimdAesMix                   0      0.00%     95.36% # attempts to use FU when none available (Count)
system.cpu.statFuBusy::SimdSha1Hash                 0      0.00%     95.36% # attempts to use FU when none available (Count)
system.cpu.statFuBusy::SimdSha1Hash2                0      0.00%     95.36% # attempts to use FU when none available (Count)
system.cpu.statFuBusy::SimdSha256Hash               0      0.00%     95.36% # attempts to use FU when none available (Count)
system.cpu.statFuBusy::SimdSha256Hash2              0      0.00%     95.36% # attempts to use FU when none available (Count)
system.cpu.statFuBusy::SimdShaSigma2                0      0.00%     95.36% # attempts to use FU when none available (Count)
system.cpu.statFuBusy::SimdShaSigma3                0      0.00%     95.36% # attempts to use FU when none available (Count)
system.cpu.statFuBusy::SimdPredAlu                  0      0.00%     95.36% # attempts to use FU when none available (Count)
system.cpu.statFuBusy::MemRead                  30662      3.12%     98.48% # attempts to use FU when none available (Count)
system.cpu.statFuBusy::MemWrite                 14964      1.52%    100.00% # attempts to use FU when none available (Count)
system.cpu.statFuBusy::FloatMemRead                 0      0.00%    100.00% # attempts to use FU when none available (Count)
system.cpu.statFuBusy::FloatMemWrite                0      0.00%    100.00% # attempts to use FU when none available (Count)
system.cpu.statFuBusy::IprAccess                    0      0.00%    100.00% # attempts to use FU when none available (Count)
system.cpu.statFuBusy::InstPrefetch                 0      0.00%    100.00% # attempts to use FU when none available (Count)
system.cpu.statIssuedInstType_0::No_OpClass       251061      2.30%      2.30% # Number of instructions issued per FU type, per thread (Count)
system.cpu.statIssuedInstType_0::IntAlu       5760500     52.82%     55.12% # Number of instructions issued per FU type, per thread (Count)
system.cpu.statIssuedInstType_0::IntMult         7632      0.07%     55.19% # Number of instructions issued per FU type, per thread (Count)
system.cpu.statIssuedInstType_0::IntDiv          2713      0.02%     55.22% # Number of instructions issued per FU type, per thread (Count)
system.cpu.statIssuedInstType_0::FloatAdd            0      0.00%     55.22% # Number of instructions issued per FU type, per thread (Count)
system.cpu.statIssuedInstType_0::FloatCmp            0      0.00%     55.22% # Number of instructions issued per FU type, per thread (Count)
system.cpu.statIssuedInstType_0::FloatCvt            0      0.00%     55.22% # Number of instructions issued per FU type, per thread (Count)
system.cpu.statIssuedInstType_0::FloatMult            0      0.00%     55.22% # Number of instructions issued per FU type, per thread (Count)
system.cpu.statIssuedInstType_0::FloatMultAcc            0      0.00%     55.22% # Number of instructions issued per FU type, per thread (Count)
system.cpu.statIssuedInstType_0::FloatDiv            0      0.00%     55.22% # Number of instructions issued per FU type, per thread (Count)
system.cpu.statIssuedInstType_0::FloatMisc            2      0.00%     55.22% # Number of instructions issued per FU type, per thread (Count)
system.cpu.statIssuedInstType_0::FloatSqrt            0      0.00%     55.22% # Number of instructions issued per FU type, per thread (Count)
system.cpu.statIssuedInstType_0::SimdAdd       571580      5.24%     60.46% # Number of instructions issued per FU type, per thread (Count)
system.cpu.statIssuedInstType_0::SimdAddAcc            0      0.00%     60.46% # Number of instructions issued per FU type, per thread (Count)
system.cpu.statIssuedInstType_0::SimdAlu         1033      0.01%     60.47% # Number of instructions issued per FU type, per thread (Count)
system.cpu.statIssuedInstType_0::SimdCmp          125      0.00%     60.47% # Number of instructions issued per FU type, per thread (Count)
system.cpu.statIssuedInstType_0::SimdCvt            0      0.00%     60.47% # Number of instructions issued per FU type, per thread (Count)
system.cpu.statIssuedInstType_0::SimdMisc       571639      5.24%     65.71% # Number of instructions issued per FU type, per thread (Count)
system.cpu.statIssuedInstType_0::SimdMult       592970      5.44%     71.15% # Number of instructions issued per FU type, per thread (Count)
system.cpu.statIssuedInstType_0::SimdMultAcc      1153905     10.58%     81.73% # Number of instructions issued per FU type, per thread (Count)
system.cpu.statIssuedInstType_0::SimdShift            0      0.00%     81.73% # Number of instructions issued per FU type, per thread (Count)
system.cpu.statIssuedInstType_0::SimdShiftAcc            0      0.00%     81.73% # Number of instructions issued per FU type, per thread (Count)
system.cpu.statIssuedInstType_0::SimdDiv            0      0.00%     81.73% # Number of instructions issued per FU type, per thread (Count)
system.cpu.statIssuedInstType_0::SimdSqrt            0      0.00%     81.73% # Number of instructions issued per FU type, per thread (Count)
system.cpu.statIssuedInstType_0::SimdFloatAdd            0      0.00%     81.73% # Number of instructions issued per FU type, per thread (Count)
system.cpu.statIssuedInstType_0::SimdFloatAlu            0      0.00%     81.73% # Number of instructions issued per FU type, per thread (Count)
system.cpu.statIssuedInstType_0::SimdFloatCmp            0      0.00%     81.73% # Number of instructions issued per FU type, per thread (Count)
system.cpu.statIssuedInstType_0::SimdFloatCvt            0      0.00%     81.73% # Number of instructions issued per FU type, per thread (Count)
system.cpu.statIssuedInstType_0::SimdFloatDiv            0      0.00%     81.73% # Number of instructions issued per FU type, per thread (Count)
system.cpu.statIssuedInstType_0::SimdFloatMisc            0      0.00%     81.73% # Number of instructions issued per FU type, per thread (Count)
system.cpu.statIssuedInstType_0::SimdFloatMult            0      0.00%     81.73% # Number of instructions issued per FU type, per thread (Count)
system.cpu.statIssuedInstType_0::SimdFloatMultAcc            0      0.00%     81.73% # Number of instructions issued per FU type, per thread (Count)
system.cpu.statIssuedInstType_0::SimdFloatSqrt            0      0.00%     81.73% # Number of instructions issued per FU type, per thread (Count)
system.cpu.statIssuedInstType_0::SimdReduceAdd            0      0.00%     81.73% # Number of instructions issued per FU type, per thread (Count)
system.cpu.statIssuedInstType_0::SimdReduceAlu            0      0.00%     81.73% # Number of instructions issued per FU type, per thread (Count)
system.cpu.statIssuedInstType_0::SimdReduceCmp            0      0.00%     81.73% # Number of instructions issued per FU type, per thread (Count)
system.cpu.statIssuedInstType_0::SimdFloatReduceAdd            0      0.00%     81.73% # Number of instructions issued per FU type, per thread (Count)
system.cpu.statIssuedInstType_0::SimdFloatReduceCmp            0      0.00%     81.73% # Number of instructions issued per FU type, per thread (Count)
system.cpu.statIssuedInstType_0::SimdAes            0      0.00%     81.73% # Number of instructions issued per FU type, per thread (Count)
system.cpu.statIssuedInstType_0::SimdAesMix            0      0.00%     81.73% # Number of instructions issued per FU type, per thread (Count)
system.cpu.statIssuedInstType_0::SimdSha1Hash            0      0.00%     81.73% # Number of instructions issued per FU type, per thread (Count)
system.cpu.statIssuedInstType_0::SimdSha1Hash2            0      0.00%     81.73% # Number of instructions issued per FU type, per thread (Count)
system.cpu.statIssuedInstType_0::SimdSha256Hash            0      0.00%     81.73% # Number of instructions issued per FU type, per thread (Count)
system.cpu.statIssuedInstType_0::SimdSha256Hash2            0      0.00%     81.73% # Number of instructions issued per FU type, per thread (Count)
system.cpu.statIssuedInstType_0::SimdShaSigma2            0      0.00%     81.73% # Number of instructions issued per FU type, per thread (Count)
system.cpu.statIssuedInstType_0::SimdShaSigma3            0      0.00%     81.73% # Number of instructions issued per FU type, per thread (Count)
system.cpu.statIssuedInstType_0::SimdPredAlu            0      0.00%     81.73% # Number of instructions issued per FU type, per thread (Count)
system.cpu.statIssuedInstType_0::MemRead      1482201     13.59%     95.32% # Number of instructions issued per FU type, per thread (Count)
system.cpu.statIssuedInstType_0::MemWrite       510498      4.68%    100.00% # Number of instructions issued per FU type, per thread (Count)
system.cpu.statIssuedInstType_0::FloatMemRead            0      0.00%    100.00% # Number of instructions issued per FU type, per thread (Count)
system.cpu.statIssuedInstType_0::FloatMemWrite            0      0.00%    100.00% # Number of instructions issued per FU type, per thread (Count)
system.cpu.statIssuedInstType_0::IprAccess            0      0.00%    100.00% # Number of instructions issued per FU type, per thread (Count)
system.cpu.statIssuedInstType_0::InstPrefetch            0      0.00%    100.00% # Number of instructions issued per FU type, per thread (Count)
system.cpu.statIssuedInstType_0::total       10905859                       # Number of instructions issued per FU type, per thread (Count)
system.cpu.issueRate                         1.097671                       # Inst issue rate ((Count/Cycle))
system.cpu.fuBusy                              982633                       # FU busy when requested (Count)
system.cpu.fuBusyRate                        0.090101                       # FU busy rate (busy events/executed inst) ((Count/Count))
system.cpu.intInstQueueReads                 24194578                       # Number of integer instruction queue reads (Count)
system.cpu.intInstQueueWrites                 7981790                       # Number of integer instruction queue writes (Count)
system.cpu.intInstQueueWakeupAccesses         7064093                       # Number of integer instruction queue wakeup accesses (Count)
system.cpu.fpInstQueueReads                         0                       # Number of floating instruction queue reads (Count)
system.cpu.fpInstQueueWrites                        0                       # Number of floating instruction queue writes (Count)
system.cpu.fpInstQueueWakeupAccesses                0                       # Number of floating instruction queue wakeup accesses (Count)
system.cpu.vecInstQueueReads                  8393906                       # Number of vector instruction queue reads (Count)
system.cpu.vecInstQueueWrites                 3737845                       # Number of vector instruction queue writes (Count)
system.cpu.vecInstQueueWakeupAccesses         3645573                       # Number of vector instruction queue wakeup accesses (Count)
system.cpu.intAluAccesses                     7230515                       # Number of integer alu accesses (Count)
system.cpu.fpAluAccesses                            0                       # Number of floating point alu accesses (Count)
system.cpu.vecAluAccesses                     4406916                       # Number of vector alu accesses (Count)
system.cpu.numInsts                          10874535                       # Number of executed instructions (Count)
system.cpu.numLoadInsts                       1468734                       # Number of load instructions executed (Count)
system.cpu.numSquashedInsts                     31324                       # Number of squashed instructions skipped in execute (Count)
system.cpu.numSwp                                   0                       # Number of swp insts executed (Count)
system.cpu.numNop                                 434                       # Number of nop insts executed (Count)
system.cpu.numRefs                            1977434                       # Number of memory reference insts executed (Count)
system.cpu.numBranches                        1591244                       # Number of branches executed (Count)
system.cpu.numStoreInsts                       508700                       # Number of stores executed (Count)
system.cpu.numRate                           1.094519                       # Inst execution rate ((Count/Cycle))
system.cpu.timesIdled                            1473                       # Number of times that the entire CPU went into an idle state and unscheduled itself (Count)
system.cpu.idleCycles                          143693                       # Total number of cycles that the CPU has spent unscheduled due to idling (Cycle)
system.cpu.committedInsts                     9610232                       # Number of Instructions Simulated (Count)
system.cpu.committedOps                      10379994                       # Number of Ops (including micro ops) Simulated (Count)
system.cpu.cpi                               1.033841                       # CPI: Cycles Per Instruction ((Cycle/Count))
system.cpu.totalCpi                          1.033841                       # CPI: Total CPI of All Threads ((Cycle/Count))
system.cpu.ipc                               0.967267                       # IPC: Instructions Per Cycle ((Count/Cycle))
system.cpu.totalIpc                          0.967267                       # IPC: Total IPC of All Threads ((Count/Cycle))
system.cpu.intRegfileReads                    9975504                       # Number of integer regfile reads (Count)
system.cpu.intRegfileWrites                   4038296                       # Number of integer regfile writes (Count)
system.cpu.vecRegfileReads                    9867829                       # number of vector regfile reads (Count)
system.cpu.ccRegfileReads                     4757982                       # number of cc regfile reads (Count)
system.cpu.ccRegfileWrites                    4761111                       # number of cc regfile writes (Count)
system.cpu.miscRegfileReads                   7265613                       # number of misc regfile reads (Count)
system.cpu.miscRegfileWrites                      201                       # number of misc regfile writes (Count)
system.cpu.MemDepUnit__0.insertedLoads        1373783                       # Number of loads inserted to the mem dependence unit. (Count)
system.cpu.MemDepUnit__0.insertedStores        520027                       # Number of stores inserted to the mem dependence unit. (Count)
system.cpu.MemDepUnit__0.conflictingLoads        20205                       # Number of conflicting loads. (Count)
system.cpu.MemDepUnit__0.conflictingStores        15029                       # Number of conflicting stores. (Count)
system.cpu.MemDepUnit__1.insertedLoads              0                       # Number of loads inserted to the mem dependence unit. (Count)
system.cpu.MemDepUnit__1.insertedStores             0                       # Number of stores inserted to the mem dependence unit. (Count)
system.cpu.MemDepUnit__1.conflictingLoads            0                       # Number of conflicting loads. (Count)
system.cpu.MemDepUnit__1.conflictingStores            0                       # Number of conflicting stores. (Count)
system.cpu.MemDepUnit__2.insertedLoads              0                       # Number of loads inserted to the mem dependence unit. (Count)
system.cpu.MemDepUnit__2.insertedStores             0                       # Number of stores inserted to the mem dependence unit. (Count)
system.cpu.MemDepUnit__2.conflictingLoads            0                       # Number of conflicting loads. (Count)
system.cpu.MemDepUnit__2.conflictingStores            0                       # Number of conflicting stores. (Count)
system.cpu.MemDepUnit__3.insertedLoads              0                       # Number of loads inserted to the mem dependence unit. (Count)
system.cpu.MemDepUnit__3.insertedStores             0                       # Number of stores inserted to the mem dependence unit. (Count)
system.cpu.MemDepUnit__3.conflictingLoads            0                       # Number of conflicting loads. (Count)
system.cpu.MemDepUnit__3.conflictingStores            0                       # Number of conflicting stores. (Count)
system.cpu.branchPred.lookups                 1736813                       # Number of BP lookups (Count)
system.cpu.branchPred.condPredicted           1662333                       # Number of conditional branches predicted (Count)
system.cpu.branchPred.condIncorrect             19076                       # Number of conditional branches incorrect (Count)
system.cpu.branchPred.BTBLookups               340713                       # Number of BTB lookups (Count)
system.cpu.branchPred.BTBUpdates                 9676                       # Number of BTB updates (Count)
system.cpu.branchPred.BTBHits                  337483                       # Number of BTB hits (Count)
system.cpu.branchPred.BTBHitRatio            0.990520                       # BTB Hit Ratio (Ratio)
system.cpu.branchPred.RASUsed                   17588                       # Number of times the RAS was used to get a target. (Count)
system.cpu.branchPred.RASIncorrect                 41                       # Number of incorrect RAS predictions. (Count)
system.cpu.branchPred.indirectLookups            6622                       # Number of indirect predictor lookups. (Count)
system.cpu.branchPred.indirectHits               1344                       # Number of indirect target hits. (Count)
system.cpu.branchPred.indirectMisses             5278                       # Number of indirect misses. (Count)
system.cpu.branchPred.indirectMispredicted          665                       # Number of mispredicted indirect branches. (Count)
system.cpu.commit.commitSquashedInsts          656543                       # The number of squashed insts skipped by commit (Count)
system.cpu.commit.commitNonSpecStalls             260                       # The number of times commit has been forced to stall to communicate backwards (Count)
system.cpu.commit.branchMispredicts             19023                       # The number of times a branch was mispredicted (Count)
system.cpu.commit.numCommittedDist::samples      9690925                       # Number of insts commited each cycle (Count)
system.cpu.commit.numCommittedDist::mean     1.071117                       # Number of insts commited each cycle (Count)
system.cpu.commit.numCommittedDist::stdev     2.585233                       # Number of insts commited each cycle (Count)
system.cpu.commit.numCommittedDist::underflows            0      0.00%      0.00% # Number of insts commited each cycle (Count)
system.cpu.commit.numCommittedDist::0         7887793     81.39%     81.39% # Number of insts commited each cycle (Count)
system.cpu.commit.numCommittedDist::1          367657      3.79%     85.19% # Number of insts commited each cycle (Count)
system.cpu.commit.numCommittedDist::2          109364      1.13%     86.32% # Number of insts commited each cycle (Count)
system.cpu.commit.numCommittedDist::3           53509      0.55%     86.87% # Number of insts commited each cycle (Count)
system.cpu.commit.numCommittedDist::4           95581      0.99%     87.85% # Number of insts commited each cycle (Count)
system.cpu.commit.numCommittedDist::5           32035      0.33%     88.18% # Number of insts commited each cycle (Count)
system.cpu.commit.numCommittedDist::6           14374      0.15%     88.33% # Number of insts commited each cycle (Count)
system.cpu.commit.numCommittedDist::7           40439      0.42%     88.75% # Number of insts commited each cycle (Count)
system.cpu.commit.numCommittedDist::8         1090173     11.25%    100.00% # Number of insts commited each cycle (Count)
system.cpu.commit.numCommittedDist::overflows            0      0.00%    100.00% # Number of insts commited each cycle (Count)
system.cpu.commit.numCommittedDist::min_value            0                       # Number of insts commited each cycle (Count)
system.cpu.commit.numCommittedDist::max_value            8                       # Number of insts commited each cycle (Count)
system.cpu.commit.numCommittedDist::total      9690925                       # Number of insts commited each cycle (Count)
system.cpu.commit.instsCommitted              9610350                       # Number of instructions committed (Count)
system.cpu.commit.opsCommitted               10380112                       # Number of ops (including micro ops) committed (Count)
system.cpu.commit.memRefs                     1734629                       # Number of memory references committed (Count)
system.cpu.commit.loads                       1255784                       # Number of loads committed (Count)
system.cpu.commit.amos                            100                       # Number of atomic instructions committed (Count)
system.cpu.commit.membars                         108                       # Number of memory barriers committed (Count)
system.cpu.commit.branches                    1534124                       # Number of branches committed (Count)
system.cpu.commit.vectorInstructions          3634679                       # Number of committed Vector instructions. (Count)
system.cpu.commit.floating                          0                       # Number of committed floating point instructions. (Count)
system.cpu.commit.integer                     6699519                       # Number of committed integer instructions. (Count)
system.cpu.commit.functionCalls                 10998                       # Number of function calls committed. (Count)
system.cpu.commit.committedInstType_0::No_OpClass       249436      2.40%      2.40% # Class of committed instruction (Count)
system.cpu.commit.committedInstType_0::IntAlu      5502274     53.01%     55.41% # Class of committed instruction (Count)
system.cpu.commit.committedInstType_0::IntMult         7064      0.07%     55.48% # Class of committed instruction (Count)
system.cpu.commit.committedInstType_0::IntDiv         2565      0.02%     55.50% # Class of committed instruction (Count)
system.cpu.commit.committedInstType_0::FloatAdd            0      0.00%     55.50% # Class of committed instruction (Count)
system.cpu.commit.committedInstType_0::FloatCmp            0      0.00%     55.50% # Class of committed instruction (Count)
system.cpu.commit.committedInstType_0::FloatCvt            0      0.00%     55.50% # Class of committed instruction (Count)
system.cpu.commit.committedInstType_0::FloatMult            0      0.00%     55.50% # Class of committed instruction (Count)
system.cpu.commit.committedInstType_0::FloatMultAcc            0      0.00%     55.50% # Class of committed instruction (Count)
system.cpu.commit.committedInstType_0::FloatDiv            0      0.00%     55.50% # Class of committed instruction (Count)
system.cpu.commit.committedInstType_0::FloatMisc            2      0.00%     55.50% # Class of committed instruction (Count)
system.cpu.commit.committedInstType_0::FloatSqrt            0      0.00%     55.50% # Class of committed instruction (Count)
system.cpu.commit.committedInstType_0::SimdAdd       570319      5.49%     61.00% # Class of committed instruction (Count)
system.cpu.commit.committedInstType_0::SimdAddAcc            0      0.00%     61.00% # Class of committed instruction (Count)
system.cpu.commit.committedInstType_0::SimdAlu          953      0.01%     61.01% # Class of committed instruction (Count)
system.cpu.commit.committedInstType_0::SimdCmp           97      0.00%     61.01% # Class of committed instruction (Count)
system.cpu.commit.committedInstType_0::SimdCvt            0      0.00%     61.01% # Class of committed instruction (Count)
system.cpu.commit.committedInstType_0::SimdMisc       570373      5.49%     66.50% # Class of committed instruction (Count)
system.cpu.commit.committedInstType_0::SimdMult       591360      5.70%     72.20% # Class of committed instruction (Count)
system.cpu.commit.committedInstType_0::SimdMultAcc      1151040     11.09%     83.29% # Class of committed instruction (Count)
system.cpu.commit.committedInstType_0::SimdShift            0      0.00%     83.29% # Class of committed instruction (Count)
system.cpu.commit.committedInstType_0::SimdShiftAcc            0      0.00%     83.29% # Class of committed instruction (Count)
system.cpu.commit.committedInstType_0::SimdDiv            0      0.00%     83.29% # Class of committed instruction (Count)
system.cpu.commit.committedInstType_0::SimdSqrt            0      0.00%     83.29% # Class of committed instruction (Count)
system.cpu.commit.committedInstType_0::SimdFloatAdd            0      0.00%     83.29% # Class of committed instruction (Count)
system.cpu.commit.committedInstType_0::SimdFloatAlu            0      0.00%     83.29% # Class of committed instruction (Count)
system.cpu.commit.committedInstType_0::SimdFloatCmp            0      0.00%     83.29% # Class of committed instruction (Count)
system.cpu.commit.committedInstType_0::SimdFloatCvt            0      0.00%     83.29% # Class of committed instruction (Count)
system.cpu.commit.committedInstType_0::SimdFloatDiv            0      0.00%     83.29% # Class of committed instruction (Count)
system.cpu.commit.committedInstType_0::SimdFloatMisc            0      0.00%     83.29% # Class of committed instruction (Count)
system.cpu.commit.committedInstType_0::SimdFloatMult            0      0.00%     83.29% # Class of committed instruction (Count)
system.cpu.commit.committedInstType_0::SimdFloatMultAcc            0      0.00%     83.29% # Class of committed instruction (Count)
system.cpu.commit.committedInstType_0::SimdFloatSqrt            0      0.00%     83.29% # Class of committed instruction (Count)
system.cpu.commit.committedInstType_0::SimdReduceAdd            0      0.00%     83.29% # Class of committed instruction (Count)
system.cpu.commit.committedInstType_0::SimdReduceAlu            0      0.00%     83.29% # Class of committed instruction (Count)
system.cpu.commit.committedInstType_0::SimdReduceCmp            0      0.00%     83.29% # Class of committed instruction (Count)
system.cpu.commit.committedInstType_0::SimdFloatReduceAdd            0      0.00%     83.29% # Class of committed instruction (Count)
system.cpu.commit.committedInstType_0::SimdFloatReduceCmp            0      0.00%     83.29% # Class of committed instruction (Count)
system.cpu.commit.committedInstType_0::SimdAes            0      0.00%     83.29% # Class of committed instruction (Count)
system.cpu.commit.committedInstType_0::SimdAesMix            0      0.00%     83.29% # Class of committed instruction (Count)
system.cpu.commit.committedInstType_0::SimdSha1Hash            0      0.00%     83.29% # Class of committed instruction (Count)
system.cpu.commit.committedInstType_0::SimdSha1Hash2            0      0.00%     83.29% # Class of committed instruction (Count)
system.cpu.commit.committedInstType_0::SimdSha256Hash            0      0.00%     83.29% # Class of committed instruction (Count)
system.cpu.commit.committedInstType_0::SimdSha256Hash2            0      0.00%     83.29% # Class of committed instruction (Count)
system.cpu.commit.committedInstType_0::SimdShaSigma2            0      0.00%     83.29% # Class of committed instruction (Count)
system.cpu.commit.committedInstType_0::SimdShaSigma3            0      0.00%     83.29% # Class of committed instruction (Count)
system.cpu.commit.committedInstType_0::SimdPredAlu            0      0.00%     83.29% # Class of committed instruction (Count)
system.cpu.commit.committedInstType_0::MemRead      1255784     12.10%     95.39% # Class of committed instruction (Count)
system.cpu.commit.committedInstType_0::MemWrite       478845      4.61%    100.00% # Class of committed instruction (Count)
system.cpu.commit.committedInstType_0::FloatMemRead            0      0.00%    100.00% # Class of committed instruction (Count)
system.cpu.commit.committedInstType_0::FloatMemWrite            0      0.00%    100.00% # Class of committed instruction (Count)
system.cpu.commit.committedInstType_0::IprAccess            0      0.00%    100.00% # Class of committed instruction (Count)
system.cpu.commit.committedInstType_0::InstPrefetch            0      0.00%    100.00% # Class of committed instruction (Count)
system.cpu.commit.committedInstType_0::total     10380112                       # Class of committed instruction (Count)
system.cpu.commit.commitEligibleSamples       1090173                       # number cycles where commit BW limit reached (Cycle)
system.cpu.dcache.demandHits::cpu.data        1572736                       # number of demand (read+write) hits (Count)
system.cpu.dcache.demandHits::total           1572736                       # number of demand (read+write) hits (Count)
system.cpu.dcache.overallHits::cpu.data       1572736                       # number of overall hits (Count)
system.cpu.dcache.overallHits::total          1572736                       # number of overall hits (Count)
system.cpu.dcache.demandMisses::cpu.data       215858                       # number of demand (read+write) misses (Count)
system.cpu.dcache.demandMisses::total          215858                       # number of demand (read+write) misses (Count)
system.cpu.dcache.overallMisses::cpu.data       215858                       # number of overall misses (Count)
system.cpu.dcache.overallMisses::total         215858                       # number of overall misses (Count)
system.cpu.dcache.demandMissLatency::cpu.data  15319773993                       # number of demand (read+write) miss ticks (Tick)
system.cpu.dcache.demandMissLatency::total  15319773993                       # number of demand (read+write) miss ticks (Tick)
system.cpu.dcache.overallMissLatency::cpu.data  15319773993                       # number of overall miss ticks (Tick)
system.cpu.dcache.overallMissLatency::total  15319773993                       # number of overall miss ticks (Tick)
system.cpu.dcache.demandAccesses::cpu.data      1788594                       # number of demand (read+write) accesses (Count)
system.cpu.dcache.demandAccesses::total       1788594                       # number of demand (read+write) accesses (Count)
system.cpu.dcache.overallAccesses::cpu.data      1788594                       # number of overall (read+write) accesses (Count)
system.cpu.dcache.overallAccesses::total      1788594                       # number of overall (read+write) accesses (Count)
system.cpu.dcache.demandMissRate::cpu.data     0.120686                       # miss rate for demand accesses (Ratio)
system.cpu.dcache.demandMissRate::total      0.120686                       # miss rate for demand accesses (Ratio)
system.cpu.dcache.overallMissRate::cpu.data     0.120686                       # miss rate for overall accesses (Ratio)
system.cpu.dcache.overallMissRate::total     0.120686                       # miss rate for overall accesses (Ratio)
system.cpu.dcache.demandAvgMissLatency::cpu.data 70971.536811                       # average overall miss latency in ticks ((Tick/Count))
system.cpu.dcache.demandAvgMissLatency::total 70971.536811                       # average overall miss latency in ticks ((Tick/Count))
system.cpu.dcache.overallAvgMissLatency::cpu.data 70971.536811                       # average overall miss latency ((Tick/Count))
system.cpu.dcache.overallAvgMissLatency::total 70971.536811                       # average overall miss latency ((Tick/Count))
system.cpu.dcache.blockedCycles::no_mshrs       721267                       # number of cycles access was blocked (Cycle)
system.cpu.dcache.blockedCycles::no_targets          528                       # number of cycles access was blocked (Cycle)
system.cpu.dcache.blockedCauses::no_mshrs        22547                       # number of times access was blocked (Count)
system.cpu.dcache.blockedCauses::no_targets           11                       # number of times access was blocked (Count)
system.cpu.dcache.avgBlocked::no_mshrs      31.989489                       # average number of cycles each access was blocked ((Cycle/Count))
system.cpu.dcache.avgBlocked::no_targets           48                       # average number of cycles each access was blocked ((Cycle/Count))
system.cpu.dcache.writebacks::writebacks        99895                       # number of writebacks (Count)
system.cpu.dcache.writebacks::total             99895                       # number of writebacks (Count)
system.cpu.dcache.demandMshrHits::cpu.data        51848                       # number of demand (read+write) MSHR hits (Count)
system.cpu.dcache.demandMshrHits::total         51848                       # number of demand (read+write) MSHR hits (Count)
system.cpu.dcache.overallMshrHits::cpu.data        51848                       # number of overall MSHR hits (Count)
system.cpu.dcache.overallMshrHits::total        51848                       # number of overall MSHR hits (Count)
system.cpu.dcache.demandMshrMisses::cpu.data       164010                       # number of demand (read+write) MSHR misses (Count)
system.cpu.dcache.demandMshrMisses::total       164010                       # number of demand (read+write) MSHR misses (Count)
system.cpu.dcache.overallMshrMisses::cpu.data       164010                       # number of overall MSHR misses (Count)
system.cpu.dcache.overallMshrMisses::total       164010                       # number of overall MSHR misses (Count)
system.cpu.dcache.demandMshrMissLatency::cpu.data  11710594204                       # number of demand (read+write) MSHR miss ticks (Tick)
system.cpu.dcache.demandMshrMissLatency::total  11710594204                       # number of demand (read+write) MSHR miss ticks (Tick)
system.cpu.dcache.overallMshrMissLatency::cpu.data  11710594204                       # number of overall MSHR miss ticks (Tick)
system.cpu.dcache.overallMshrMissLatency::total  11710594204                       # number of overall MSHR miss ticks (Tick)
system.cpu.dcache.demandMshrMissRate::cpu.data     0.091698                       # mshr miss ratio for demand accesses (Ratio)
system.cpu.dcache.demandMshrMissRate::total     0.091698                       # mshr miss ratio for demand accesses (Ratio)
system.cpu.dcache.overallMshrMissRate::cpu.data     0.091698                       # mshr miss ratio for overall accesses (Ratio)
system.cpu.dcache.overallMshrMissRate::total     0.091698                       # mshr miss ratio for overall accesses (Ratio)
system.cpu.dcache.demandAvgMshrMissLatency::cpu.data 71401.708457                       # average overall mshr miss latency ((Tick/Count))
system.cpu.dcache.demandAvgMshrMissLatency::total 71401.708457                       # average overall mshr miss latency ((Tick/Count))
system.cpu.dcache.overallAvgMshrMissLatency::cpu.data 71401.708457                       # average overall mshr miss latency ((Tick/Count))
system.cpu.dcache.overallAvgMshrMissLatency::total 71401.708457                       # average overall mshr miss latency ((Tick/Count))
system.cpu.dcache.replacements                 162991                       # number of replacements (Count)
system.cpu.dcache.ReadReq.hits::cpu.data      1099670                       # number of ReadReq hits (Count)
system.cpu.dcache.ReadReq.hits::total         1099670                       # number of ReadReq hits (Count)
system.cpu.dcache.ReadReq.misses::cpu.data       210165                       # number of ReadReq misses (Count)
system.cpu.dcache.ReadReq.misses::total        210165                       # number of ReadReq misses (Count)
system.cpu.dcache.ReadReq.missLatency::cpu.data  14980765000                       # number of ReadReq miss ticks (Tick)
system.cpu.dcache.ReadReq.missLatency::total  14980765000                       # number of ReadReq miss ticks (Tick)
system.cpu.dcache.ReadReq.accesses::cpu.data      1309835                       # number of ReadReq accesses(hits+misses) (Count)
system.cpu.dcache.ReadReq.accesses::total      1309835                       # number of ReadReq accesses(hits+misses) (Count)
system.cpu.dcache.ReadReq.missRate::cpu.data     0.160452                       # miss rate for ReadReq accesses (Ratio)
system.cpu.dcache.ReadReq.missRate::total     0.160452                       # miss rate for ReadReq accesses (Ratio)
system.cpu.dcache.ReadReq.avgMissLatency::cpu.data 71280.969714                       # average ReadReq miss latency ((Tick/Count))
system.cpu.dcache.ReadReq.avgMissLatency::total 71280.969714                       # average ReadReq miss latency ((Tick/Count))
system.cpu.dcache.ReadReq.mshrHits::cpu.data        48411                       # number of ReadReq MSHR hits (Count)
system.cpu.dcache.ReadReq.mshrHits::total        48411                       # number of ReadReq MSHR hits (Count)
system.cpu.dcache.ReadReq.mshrMisses::cpu.data       161754                       # number of ReadReq MSHR misses (Count)
system.cpu.dcache.ReadReq.mshrMisses::total       161754                       # number of ReadReq MSHR misses (Count)
system.cpu.dcache.ReadReq.mshrMissLatency::cpu.data  11576355500                       # number of ReadReq MSHR miss ticks (Tick)
system.cpu.dcache.ReadReq.mshrMissLatency::total  11576355500                       # number of ReadReq MSHR miss ticks (Tick)
system.cpu.dcache.ReadReq.mshrMissRate::cpu.data     0.123492                       # mshr miss rate for ReadReq accesses (Ratio)
system.cpu.dcache.ReadReq.mshrMissRate::total     0.123492                       # mshr miss rate for ReadReq accesses (Ratio)
system.cpu.dcache.ReadReq.avgMshrMissLatency::cpu.data 71567.661387                       # average ReadReq mshr miss latency ((Tick/Count))
system.cpu.dcache.ReadReq.avgMshrMissLatency::total 71567.661387                       # average ReadReq mshr miss latency ((Tick/Count))
system.cpu.dcache.SwapReq.hits::cpu.data           95                       # number of SwapReq hits (Count)
system.cpu.dcache.SwapReq.hits::total              95                       # number of SwapReq hits (Count)
system.cpu.dcache.SwapReq.misses::cpu.data            5                       # number of SwapReq misses (Count)
system.cpu.dcache.SwapReq.misses::total             5                       # number of SwapReq misses (Count)
system.cpu.dcache.SwapReq.missLatency::cpu.data       301500                       # number of SwapReq miss ticks (Tick)
system.cpu.dcache.SwapReq.missLatency::total       301500                       # number of SwapReq miss ticks (Tick)
system.cpu.dcache.SwapReq.accesses::cpu.data          100                       # number of SwapReq accesses(hits+misses) (Count)
system.cpu.dcache.SwapReq.accesses::total          100                       # number of SwapReq accesses(hits+misses) (Count)
system.cpu.dcache.SwapReq.missRate::cpu.data     0.050000                       # miss rate for SwapReq accesses (Ratio)
system.cpu.dcache.SwapReq.missRate::total     0.050000                       # miss rate for SwapReq accesses (Ratio)
system.cpu.dcache.SwapReq.avgMissLatency::cpu.data        60300                       # average SwapReq miss latency ((Tick/Count))
system.cpu.dcache.SwapReq.avgMissLatency::total        60300                       # average SwapReq miss latency ((Tick/Count))
system.cpu.dcache.SwapReq.mshrMisses::cpu.data            5                       # number of SwapReq MSHR misses (Count)
system.cpu.dcache.SwapReq.mshrMisses::total            5                       # number of SwapReq MSHR misses (Count)
system.cpu.dcache.SwapReq.mshrMissLatency::cpu.data       296500                       # number of SwapReq MSHR miss ticks (Tick)
system.cpu.dcache.SwapReq.mshrMissLatency::total       296500                       # number of SwapReq MSHR miss ticks (Tick)
system.cpu.dcache.SwapReq.mshrMissRate::cpu.data     0.050000                       # mshr miss rate for SwapReq accesses (Ratio)
system.cpu.dcache.SwapReq.mshrMissRate::total     0.050000                       # mshr miss rate for SwapReq accesses (Ratio)
system.cpu.dcache.SwapReq.avgMshrMissLatency::cpu.data        59300                       # average SwapReq mshr miss latency ((Tick/Count))
system.cpu.dcache.SwapReq.avgMshrMissLatency::total        59300                       # average SwapReq mshr miss latency ((Tick/Count))
system.cpu.dcache.WriteLineReq.misses::cpu.data          131                       # number of WriteLineReq misses (Count)
system.cpu.dcache.WriteLineReq.misses::total          131                       # number of WriteLineReq misses (Count)
system.cpu.dcache.WriteLineReq.missLatency::cpu.data      4174908                       # number of WriteLineReq miss ticks (Tick)
system.cpu.dcache.WriteLineReq.missLatency::total      4174908                       # number of WriteLineReq miss ticks (Tick)
system.cpu.dcache.WriteLineReq.accesses::cpu.data          131                       # number of WriteLineReq accesses(hits+misses) (Count)
system.cpu.dcache.WriteLineReq.accesses::total          131                       # number of WriteLineReq accesses(hits+misses) (Count)
system.cpu.dcache.WriteLineReq.missRate::cpu.data            1                       # miss rate for WriteLineReq accesses (Ratio)
system.cpu.dcache.WriteLineReq.missRate::total            1                       # miss rate for WriteLineReq accesses (Ratio)
system.cpu.dcache.WriteLineReq.avgMissLatency::cpu.data 31869.526718                       # average WriteLineReq miss latency ((Tick/Count))
system.cpu.dcache.WriteLineReq.avgMissLatency::total 31869.526718                       # average WriteLineReq miss latency ((Tick/Count))
system.cpu.dcache.WriteLineReq.mshrMisses::cpu.data          131                       # number of WriteLineReq MSHR misses (Count)
system.cpu.dcache.WriteLineReq.mshrMisses::total          131                       # number of WriteLineReq MSHR misses (Count)
system.cpu.dcache.WriteLineReq.mshrMissLatency::cpu.data      4043908                       # number of WriteLineReq MSHR miss ticks (Tick)
system.cpu.dcache.WriteLineReq.mshrMissLatency::total      4043908                       # number of WriteLineReq MSHR miss ticks (Tick)
system.cpu.dcache.WriteLineReq.mshrMissRate::cpu.data            1                       # mshr miss rate for WriteLineReq accesses (Ratio)
system.cpu.dcache.WriteLineReq.mshrMissRate::total            1                       # mshr miss rate for WriteLineReq accesses (Ratio)
system.cpu.dcache.WriteLineReq.avgMshrMissLatency::cpu.data 30869.526718                       # average WriteLineReq mshr miss latency ((Tick/Count))
system.cpu.dcache.WriteLineReq.avgMshrMissLatency::total 30869.526718                       # average WriteLineReq mshr miss latency ((Tick/Count))
system.cpu.dcache.WriteReq.hits::cpu.data       473066                       # number of WriteReq hits (Count)
system.cpu.dcache.WriteReq.hits::total         473066                       # number of WriteReq hits (Count)
system.cpu.dcache.WriteReq.misses::cpu.data         5562                       # number of WriteReq misses (Count)
system.cpu.dcache.WriteReq.misses::total         5562                       # number of WriteReq misses (Count)
system.cpu.dcache.WriteReq.missLatency::cpu.data    334834085                       # number of WriteReq miss ticks (Tick)
system.cpu.dcache.WriteReq.missLatency::total    334834085                       # number of WriteReq miss ticks (Tick)
system.cpu.dcache.WriteReq.accesses::cpu.data       478628                       # number of WriteReq accesses(hits+misses) (Count)
system.cpu.dcache.WriteReq.accesses::total       478628                       # number of WriteReq accesses(hits+misses) (Count)
system.cpu.dcache.WriteReq.missRate::cpu.data     0.011621                       # miss rate for WriteReq accesses (Ratio)
system.cpu.dcache.WriteReq.missRate::total     0.011621                       # miss rate for WriteReq accesses (Ratio)
system.cpu.dcache.WriteReq.avgMissLatency::cpu.data 60200.302949                       # average WriteReq miss latency ((Tick/Count))
system.cpu.dcache.WriteReq.avgMissLatency::total 60200.302949                       # average WriteReq miss latency ((Tick/Count))
system.cpu.dcache.WriteReq.mshrHits::cpu.data         3437                       # number of WriteReq MSHR hits (Count)
system.cpu.dcache.WriteReq.mshrHits::total         3437                       # number of WriteReq MSHR hits (Count)
system.cpu.dcache.WriteReq.mshrMisses::cpu.data         2125                       # number of WriteReq MSHR misses (Count)
system.cpu.dcache.WriteReq.mshrMisses::total         2125                       # number of WriteReq MSHR misses (Count)
system.cpu.dcache.WriteReq.mshrMissLatency::cpu.data    130194796                       # number of WriteReq MSHR miss ticks (Tick)
system.cpu.dcache.WriteReq.mshrMissLatency::total    130194796                       # number of WriteReq MSHR miss ticks (Tick)
system.cpu.dcache.WriteReq.mshrMissRate::cpu.data     0.004440                       # mshr miss rate for WriteReq accesses (Ratio)
system.cpu.dcache.WriteReq.mshrMissRate::total     0.004440                       # mshr miss rate for WriteReq accesses (Ratio)
system.cpu.dcache.WriteReq.avgMshrMissLatency::cpu.data 61268.139294                       # average WriteReq mshr miss latency ((Tick/Count))
system.cpu.dcache.WriteReq.avgMshrMissLatency::total 61268.139294                       # average WriteReq mshr miss latency ((Tick/Count))
system.cpu.dcache.power_state.pwrStateResidencyTicks::UNDEFINED   4967725000                       # Cumulative time (in ticks) in various power states (Tick)
system.cpu.dcache.tags.tagsInUse          1016.455248                       # Average ticks per tags in use ((Tick/Count))
system.cpu.dcache.tags.totalRefs              1736846                       # Total number of references to valid blocks. (Count)
system.cpu.dcache.tags.sampledRefs             164015                       # Sample count of references to valid blocks. (Count)
system.cpu.dcache.tags.avgRefs              10.589556                       # Average number of references to valid blocks. ((Count/Count))
system.cpu.dcache.tags.warmupTick              253500                       # The tick when the warmup percentage was hit. (Tick)
system.cpu.dcache.tags.occupancies::cpu.data  1016.455248                       # Average occupied blocks per tick, per requestor ((Count/Tick))
system.cpu.dcache.tags.avgOccs::cpu.data     0.992632                       # Average percentage of cache occupancy ((Ratio/Tick))
system.cpu.dcache.tags.avgOccs::total        0.992632                       # Average percentage of cache occupancy ((Ratio/Tick))
system.cpu.dcache.tags.occupanciesTaskId::1024         1024                       # Occupied blocks per task id (Count)
system.cpu.dcache.tags.ageTaskId_1024::0           86                       # Occupied blocks per task id, per block age (Count)
system.cpu.dcache.tags.ageTaskId_1024::1          898                       # Occupied blocks per task id, per block age (Count)
system.cpu.dcache.tags.ageTaskId_1024::2           38                       # Occupied blocks per task id, per block age (Count)
system.cpu.dcache.tags.ageTaskId_1024::3            2                       # Occupied blocks per task id, per block age (Count)
system.cpu.dcache.tags.ratioOccsTaskId::1024            1                       # Ratio of occupied blocks and all blocks, per task id (Ratio)
system.cpu.dcache.tags.tagAccesses            7318791                       # Number of tag accesses (Count)
system.cpu.dcache.tags.dataAccesses           7318791                       # Number of data accesses (Count)
system.cpu.dcache.tags.power_state.pwrStateResidencyTicks::UNDEFINED   4967725000                       # Cumulative time (in ticks) in various power states (Tick)
system.cpu.decode.idleCycles                   484918                       # Number of cycles decode is idle (Cycle)
system.cpu.decode.blockedCycles               7728984                       # Number of cycles decode is blocked (Cycle)
system.cpu.decode.runCycles                   1287655                       # Number of cycles decode is running (Cycle)
system.cpu.decode.unblockCycles                270506                       # Number of cycles decode is unblocking (Cycle)
system.cpu.decode.squashCycles                  19695                       # Number of cycles decode is squashing (Cycle)
system.cpu.decode.branchResolved               314328                       # Number of times decode resolved a branch (Count)
system.cpu.decode.branchMispred                   836                       # Number of times decode detected a branch misprediction (Count)
system.cpu.decode.decodedInsts               11249720                       # Number of instructions handled by decode (Count)
system.cpu.decode.squashedInsts                  2818                       # Number of squashed instructions handled by decode (Count)
system.cpu.fetch.icacheStallCycles             884144                       # Number of cycles fetch is stalled on an Icache miss (Cycle)
system.cpu.fetch.insts                       10615266                       # Number of instructions fetch has processed (Count)
system.cpu.fetch.branches                     1736813                       # Number of branches that fetch encountered (Count)
system.cpu.fetch.predictedBranches             356415                       # Number of branches that fetch has predicted taken (Count)
system.cpu.fetch.cycles                       8881118                       # Number of cycles fetch has run and was not squashing or blocked (Cycle)
system.cpu.fetch.squashCycles                   41016                       # Number of cycles fetch has spent squashing (Cycle)
system.cpu.fetch.miscStallCycles                  796                       # Number of cycles fetch has spent waiting on interrupts, or bad addresses, or out of MSHRs (Cycle)
system.cpu.fetch.pendingTrapStallCycles          5166                       # Number of stall cycles due to pending traps (Cycle)
system.cpu.fetch.icacheWaitRetryStallCycles           26                       # Number of stall cycles due to full MSHR (Cycle)
system.cpu.fetch.cacheLines                    833748                       # Number of cache lines fetched (Count)
system.cpu.fetch.icacheSquashes                  5295                       # Number of outstanding Icache misses that were squashed (Count)
system.cpu.fetch.nisnDist::samples            9791758                       # Number of instructions fetched each cycle (Total) (Count)
system.cpu.fetch.nisnDist::mean              1.174502                       # Number of instructions fetched each cycle (Total) (Count)
system.cpu.fetch.nisnDist::stdev             2.665337                       # Number of instructions fetched each cycle (Total) (Count)
system.cpu.fetch.nisnDist::underflows               0      0.00%      0.00% # Number of instructions fetched each cycle (Total) (Count)
system.cpu.fetch.nisnDist::0                  7998494     81.69%     81.69% # Number of instructions fetched each cycle (Total) (Count)
system.cpu.fetch.nisnDist::1                    57213      0.58%     82.27% # Number of instructions fetched each cycle (Total) (Count)
system.cpu.fetch.nisnDist::2                   157513      1.61%     83.88% # Number of instructions fetched each cycle (Total) (Count)
system.cpu.fetch.nisnDist::3                    68628      0.70%     84.58% # Number of instructions fetched each cycle (Total) (Count)
system.cpu.fetch.nisnDist::4                   115658      1.18%     85.76% # Number of instructions fetched each cycle (Total) (Count)
system.cpu.fetch.nisnDist::5                   143266      1.46%     87.22% # Number of instructions fetched each cycle (Total) (Count)
system.cpu.fetch.nisnDist::6                   117966      1.20%     88.43% # Number of instructions fetched each cycle (Total) (Count)
system.cpu.fetch.nisnDist::7                    28599      0.29%     88.72% # Number of instructions fetched each cycle (Total) (Count)
system.cpu.fetch.nisnDist::8                  1104421     11.28%    100.00% # Number of instructions fetched each cycle (Total) (Count)
system.cpu.fetch.nisnDist::overflows                0      0.00%    100.00% # Number of instructions fetched each cycle (Total) (Count)
system.cpu.fetch.nisnDist::min_value                0                       # Number of instructions fetched each cycle (Total) (Count)
system.cpu.fetch.nisnDist::max_value                8                       # Number of instructions fetched each cycle (Total) (Count)
system.cpu.fetch.nisnDist::total              9791758                       # Number of instructions fetched each cycle (Total) (Count)
system.cpu.fetch.branchRate                  0.174810                       # Number of branch fetches per cycle (Ratio)
system.cpu.fetch.rate                        1.068423                       # Number of inst fetches per cycle ((Count/Cycle))
system.cpu.icache.demandHits::cpu.inst         831118                       # number of demand (read+write) hits (Count)
system.cpu.icache.demandHits::total            831118                       # number of demand (read+write) hits (Count)
system.cpu.icache.overallHits::cpu.inst        831118                       # number of overall hits (Count)
system.cpu.icache.overallHits::total           831118                       # number of overall hits (Count)
system.cpu.icache.demandMisses::cpu.inst         2630                       # number of demand (read+write) misses (Count)
system.cpu.icache.demandMisses::total            2630                       # number of demand (read+write) misses (Count)
system.cpu.icache.overallMisses::cpu.inst         2630                       # number of overall misses (Count)
system.cpu.icache.overallMisses::total           2630                       # number of overall misses (Count)
system.cpu.icache.demandMissLatency::cpu.inst    177882499                       # number of demand (read+write) miss ticks (Tick)
system.cpu.icache.demandMissLatency::total    177882499                       # number of demand (read+write) miss ticks (Tick)
system.cpu.icache.overallMissLatency::cpu.inst    177882499                       # number of overall miss ticks (Tick)
system.cpu.icache.overallMissLatency::total    177882499                       # number of overall miss ticks (Tick)
system.cpu.icache.demandAccesses::cpu.inst       833748                       # number of demand (read+write) accesses (Count)
system.cpu.icache.demandAccesses::total        833748                       # number of demand (read+write) accesses (Count)
system.cpu.icache.overallAccesses::cpu.inst       833748                       # number of overall (read+write) accesses (Count)
system.cpu.icache.overallAccesses::total       833748                       # number of overall (read+write) accesses (Count)
system.cpu.icache.demandMissRate::cpu.inst     0.003154                       # miss rate for demand accesses (Ratio)
system.cpu.icache.demandMissRate::total      0.003154                       # miss rate for demand accesses (Ratio)
system.cpu.icache.overallMissRate::cpu.inst     0.003154                       # miss rate for overall accesses (Ratio)
system.cpu.icache.overallMissRate::total     0.003154                       # miss rate for overall accesses (Ratio)
system.cpu.icache.demandAvgMissLatency::cpu.inst 67635.931179                       # average overall miss latency in ticks ((Tick/Count))
system.cpu.icache.demandAvgMissLatency::total 67635.931179                       # average overall miss latency in ticks ((Tick/Count))
system.cpu.icache.overallAvgMissLatency::cpu.inst 67635.931179                       # average overall miss latency ((Tick/Count))
system.cpu.icache.overallAvgMissLatency::total 67635.931179                       # average overall miss latency ((Tick/Count))
system.cpu.icache.blockedCycles::no_mshrs          664                       # number of cycles access was blocked (Cycle)
system.cpu.icache.blockedCycles::no_targets            0                       # number of cycles access was blocked (Cycle)
system.cpu.icache.blockedCauses::no_mshrs           12                       # number of times access was blocked (Count)
system.cpu.icache.blockedCauses::no_targets            0                       # number of times access was blocked (Count)
system.cpu.icache.avgBlocked::no_mshrs      55.333333                       # average number of cycles each access was blocked ((Cycle/Count))
system.cpu.icache.avgBlocked::no_targets          nan                       # average number of cycles each access was blocked ((Cycle/Count))
system.cpu.icache.writebacks::writebacks         1807                       # number of writebacks (Count)
system.cpu.icache.writebacks::total              1807                       # number of writebacks (Count)
system.cpu.icache.demandMshrHits::cpu.inst          566                       # number of demand (read+write) MSHR hits (Count)
system.cpu.icache.demandMshrHits::total           566                       # number of demand (read+write) MSHR hits (Count)
system.cpu.icache.overallMshrHits::cpu.inst          566                       # number of overall MSHR hits (Count)
system.cpu.icache.overallMshrHits::total          566                       # number of overall MSHR hits (Count)
system.cpu.icache.demandMshrMisses::cpu.inst         2064                       # number of demand (read+write) MSHR misses (Count)
system.cpu.icache.demandMshrMisses::total         2064                       # number of demand (read+write) MSHR misses (Count)
system.cpu.icache.overallMshrMisses::cpu.inst         2064                       # number of overall MSHR misses (Count)
system.cpu.icache.overallMshrMisses::total         2064                       # number of overall MSHR misses (Count)
system.cpu.icache.demandMshrMissLatency::cpu.inst    140425500                       # number of demand (read+write) MSHR miss ticks (Tick)
system.cpu.icache.demandMshrMissLatency::total    140425500                       # number of demand (read+write) MSHR miss ticks (Tick)
system.cpu.icache.overallMshrMissLatency::cpu.inst    140425500                       # number of overall MSHR miss ticks (Tick)
system.cpu.icache.overallMshrMissLatency::total    140425500                       # number of overall MSHR miss ticks (Tick)
system.cpu.icache.demandMshrMissRate::cpu.inst     0.002476                       # mshr miss ratio for demand accesses (Ratio)
system.cpu.icache.demandMshrMissRate::total     0.002476                       # mshr miss ratio for demand accesses (Ratio)
system.cpu.icache.overallMshrMissRate::cpu.inst     0.002476                       # mshr miss ratio for overall accesses (Ratio)
system.cpu.icache.overallMshrMissRate::total     0.002476                       # mshr miss ratio for overall accesses (Ratio)
system.cpu.icache.demandAvgMshrMissLatency::cpu.inst 68035.610465                       # average overall mshr miss latency ((Tick/Count))
system.cpu.icache.demandAvgMshrMissLatency::total 68035.610465                       # average overall mshr miss latency ((Tick/Count))
system.cpu.icache.overallAvgMshrMissLatency::cpu.inst 68035.610465                       # average overall mshr miss latency ((Tick/Count))
system.cpu.icache.overallAvgMshrMissLatency::total 68035.610465                       # average overall mshr miss latency ((Tick/Count))
system.cpu.icache.replacements                   1807                       # number of replacements (Count)
system.cpu.icache.ReadReq.hits::cpu.inst       831118                       # number of ReadReq hits (Count)
system.cpu.icache.ReadReq.hits::total          831118                       # number of ReadReq hits (Count)
system.cpu.icache.ReadReq.misses::cpu.inst         2630                       # number of ReadReq misses (Count)
system.cpu.icache.ReadReq.misses::total          2630                       # number of ReadReq misses (Count)
system.cpu.icache.ReadReq.missLatency::cpu.inst    177882499                       # number of ReadReq miss ticks (Tick)
system.cpu.icache.ReadReq.missLatency::total    177882499                       # number of ReadReq miss ticks (Tick)
system.cpu.icache.ReadReq.accesses::cpu.inst       833748                       # number of ReadReq accesses(hits+misses) (Count)
system.cpu.icache.ReadReq.accesses::total       833748                       # number of ReadReq accesses(hits+misses) (Count)
system.cpu.icache.ReadReq.missRate::cpu.inst     0.003154                       # miss rate for ReadReq accesses (Ratio)
system.cpu.icache.ReadReq.missRate::total     0.003154                       # miss rate for ReadReq accesses (Ratio)
system.cpu.icache.ReadReq.avgMissLatency::cpu.inst 67635.931179                       # average ReadReq miss latency ((Tick/Count))
system.cpu.icache.ReadReq.avgMissLatency::total 67635.931179                       # average ReadReq miss latency ((Tick/Count))
system.cpu.icache.ReadReq.mshrHits::cpu.inst          566                       # number of ReadReq MSHR hits (Count)
system.cpu.icache.ReadReq.mshrHits::total          566                       # number of ReadReq MSHR hits (Count)
system.cpu.icache.ReadReq.mshrMisses::cpu.inst         2064                       # number of ReadReq MSHR misses (Count)
system.cpu.icache.ReadReq.mshrMisses::total         2064                       # number of ReadReq MSHR misses (Count)
system.cpu.icache.ReadReq.mshrMissLatency::cpu.inst    140425500                       # number of ReadReq MSHR miss ticks (Tick)
system.cpu.icache.ReadReq.mshrMissLatency::total    140425500                       # number of ReadReq MSHR miss ticks (Tick)
system.cpu.icache.ReadReq.mshrMissRate::cpu.inst     0.002476                       # mshr miss rate for ReadReq accesses (Ratio)
system.cpu.icache.ReadReq.mshrMissRate::total     0.002476                       # mshr miss rate for ReadReq accesses (Ratio)
system.cpu.icache.ReadReq.avgMshrMissLatency::cpu.inst 68035.610465                       # average ReadReq mshr miss latency ((Tick/Count))
system.cpu.icache.ReadReq.avgMshrMissLatency::total 68035.610465                       # average ReadReq mshr miss latency ((Tick/Count))
system.cpu.icache.power_state.pwrStateResidencyTicks::UNDEFINED   4967725000                       # Cumulative time (in ticks) in various power states (Tick)
system.cpu.icache.tags.tagsInUse           255.205658                       # Average ticks per tags in use ((Tick/Count))
system.cpu.icache.tags.totalRefs               833181                       # Total number of references to valid blocks. (Count)
system.cpu.icache.tags.sampledRefs               2063                       # Sample count of references to valid blocks. (Count)
system.cpu.icache.tags.avgRefs             403.868638                       # Average number of references to valid blocks. ((Count/Count))
system.cpu.icache.tags.warmupTick               87500                       # The tick when the warmup percentage was hit. (Tick)
system.cpu.icache.tags.occupancies::cpu.inst   255.205658                       # Average occupied blocks per tick, per requestor ((Count/Tick))
system.cpu.icache.tags.avgOccs::cpu.inst     0.996897                       # Average percentage of cache occupancy ((Ratio/Tick))
system.cpu.icache.tags.avgOccs::total        0.996897                       # Average percentage of cache occupancy ((Ratio/Tick))
system.cpu.icache.tags.occupanciesTaskId::1024          256                       # Occupied blocks per task id (Count)
system.cpu.icache.tags.ageTaskId_1024::0           74                       # Occupied blocks per task id, per block age (Count)
system.cpu.icache.tags.ageTaskId_1024::1          107                       # Occupied blocks per task id, per block age (Count)
system.cpu.icache.tags.ageTaskId_1024::3           75                       # Occupied blocks per task id, per block age (Count)
system.cpu.icache.tags.ratioOccsTaskId::1024            1                       # Ratio of occupied blocks and all blocks, per task id (Ratio)
system.cpu.icache.tags.tagAccesses            3337055                       # Number of tag accesses (Count)
system.cpu.icache.tags.dataAccesses           3337055                       # Number of data accesses (Count)
system.cpu.icache.tags.power_state.pwrStateResidencyTicks::UNDEFINED   4967725000                       # Cumulative time (in ticks) in various power states (Tick)
system.cpu.iew.idleCycles                           0                       # Number of cycles IEW is idle (Cycle)
system.cpu.iew.squashCycles                     19695                       # Number of cycles IEW is squashing (Cycle)
system.cpu.iew.blockCycles                    2700101                       # Number of cycles IEW is blocking (Cycle)
system.cpu.iew.unblockCycles                    67007                       # Number of cycles IEW is unblocking (Cycle)
system.cpu.iew.dispatchedInsts               11050198                       # Number of instructions dispatched to IQ (Count)
system.cpu.iew.dispSquashedInsts                 8901                       # Number of squashed instructions skipped by dispatch (Count)
system.cpu.iew.dispLoadInsts                  1373783                       # Number of dispatched load instructions (Count)
system.cpu.iew.dispStoreInsts                  520027                       # Number of dispatched store instructions (Count)
system.cpu.iew.dispNonSpecInsts                   380                       # Number of dispatched non-speculative instructions (Count)
system.cpu.iew.iqFullEvents                     26060                       # Number of times the IQ has become full, causing a stall (Count)
system.cpu.iew.lsqFullEvents                    27636                       # Number of times the LSQ has become full, causing a stall (Count)
system.cpu.iew.memOrderViolationEvents            102                       # Number of memory order violations (Count)
system.cpu.iew.predictedTakenIncorrect           9566                       # Number of branches that were predicted taken incorrectly (Count)
system.cpu.iew.predictedNotTakenIncorrect        12292                       # Number of branches that were predicted not taken incorrectly (Count)
system.cpu.iew.branchMispredicts                21858                       # Number of branch mispredicts detected at execute (Count)
system.cpu.iew.instsToCommit                 10720247                       # Cumulative count of insts sent to commit (Count)
system.cpu.iew.writebackCount                10709666                       # Cumulative count of insts written-back (Count)
system.cpu.iew.producerInst                   7216745                       # Number of instructions producing a value (Count)
system.cpu.iew.consumerInst                  12751117                       # Number of instructions consuming a value (Count)
system.cpu.iew.wbRate                        1.077924                       # Insts written-back per cycle ((Count/Cycle))
system.cpu.iew.wbFanout                      0.565970                       # Average fanout of values written-back ((Count/Count))
system.cpu.lsq0.forwLoads                       29929                       # Number of loads that had data forwarded from stores (Count)
system.cpu.lsq0.squashedLoads                  117999                       # Number of loads squashed (Count)
system.cpu.lsq0.ignoredResponses                   46                       # Number of memory responses ignored because the instruction is squashed (Count)
system.cpu.lsq0.memOrderViolation                 102                       # Number of memory ordering violations (Count)
system.cpu.lsq0.squashedStores                  41182                       # Number of stores squashed (Count)
system.cpu.lsq0.rescheduledLoads                 9313                       # Number of loads that were rescheduled (Count)
system.cpu.lsq0.blockedByCache                  22131                       # Number of times an access to memory failed due to the cache being blocked (Count)
system.cpu.lsq0.loadToUse::samples            1255784                       # Distribution of cycle latency between the first time a load is issued and its completion (Unspecified)
system.cpu.lsq0.loadToUse::mean             28.794027                       # Distribution of cycle latency between the first time a load is issued and its completion (Unspecified)
system.cpu.lsq0.loadToUse::stdev            69.128899                       # Distribution of cycle latency between the first time a load is issued and its completion (Unspecified)
system.cpu.lsq0.loadToUse::0-9                 979695     78.01%     78.01% # Distribution of cycle latency between the first time a load is issued and its completion (Unspecified)
system.cpu.lsq0.loadToUse::10-19                24510      1.95%     79.97% # Distribution of cycle latency between the first time a load is issued and its completion (Unspecified)
system.cpu.lsq0.loadToUse::20-29                77428      6.17%     86.13% # Distribution of cycle latency between the first time a load is issued and its completion (Unspecified)
system.cpu.lsq0.loadToUse::30-39                 2403      0.19%     86.32% # Distribution of cycle latency between the first time a load is issued and its completion (Unspecified)
system.cpu.lsq0.loadToUse::40-49                 2044      0.16%     86.49% # Distribution of cycle latency between the first time a load is issued and its completion (Unspecified)
[...]
system.mem_ctrls.dram.perBankWrBursts::10         5770                       # Per bank write bursts (Count)
system.mem_ctrls.dram.perBankWrBursts::11         6234                       # Per bank write bursts (Count)
system.mem_ctrls.dram.perBankWrBursts::12         5651                       # Per bank write bursts (Count)
system.mem_ctrls.dram.perBankWrBursts::13         5755                       # Per bank write bursts (Count)
system.mem_ctrls.dram.perBankWrBursts::14         6232                       # Per bank write bursts (Count)
system.mem_ctrls.dram.perBankWrBursts::15         5835                       # Per bank write bursts (Count)
system.mem_ctrls.dram.totQLat              2392075250                       # Total ticks spent queuing (Tick)
system.mem_ctrls.dram.totBusLat             625850000                       # Total ticks spent in databus transfers (Tick)
system.mem_ctrls.dram.totMemAccLat         4739012750                       # Total ticks spent from burst creation until serviced by the DRAM (Tick)
system.mem_ctrls.dram.avgQLat                19110.61                       # Average queueing delay per DRAM burst ((Tick/Count))
system.mem_ctrls.dram.avgBusLat               5000.00                       # Average bus latency per DRAM burst ((Tick/Count))
system.mem_ctrls.dram.avgMemAccLat           37860.61                       # Average memory access latency per DRAM burst ((Tick/Count))
system.mem_ctrls.dram.readRowHits              109225                       # Number of row buffer hits during reads (Count)
system.mem_ctrls.dram.writeRowHits              84263                       # Number of row buffer hits during writes (Count)
system.mem_ctrls.dram.readRowHitRate            87.26                       # Row buffer hit rate for reads (Ratio)
system.mem_ctrls.dram.writeRowHitRate           87.19                       # Row buffer hit rate for writes (Ratio)
system.mem_ctrls.dram.bytesPerActivate::samples        28321                       # Bytes accessed per row activation (Byte)
system.mem_ctrls.dram.bytesPerActivate::mean   501.245577                       # Bytes accessed per row activation (Byte)
system.mem_ctrls.dram.bytesPerActivate::gmean   346.480006                       # Bytes accessed per row activation (Byte)
system.mem_ctrls.dram.bytesPerActivate::stdev   358.479109                       # Bytes accessed per row activation (Byte)
system.mem_ctrls.dram.bytesPerActivate::0-127         3916     13.83%     13.83% # Bytes accessed per row activation (Byte)
system.mem_ctrls.dram.bytesPerActivate::128-255         5230     18.47%     32.29% # Bytes accessed per row activation (Byte)
system.mem_ctrls.dram.bytesPerActivate::256-383         3630     12.82%     45.11% # Bytes accessed per row activation (Byte)
system.mem_ctrls.dram.bytesPerActivate::384-511         2454      8.66%     53.78% # Bytes accessed per row activation (Byte)
system.mem_ctrls.dram.bytesPerActivate::512-639         2240      7.91%     61.69% # Bytes accessed per row activation (Byte)
system.mem_ctrls.dram.bytesPerActivate::640-767         1552      5.48%     67.17% # Bytes accessed per row activation (Byte)
system.mem_ctrls.dram.bytesPerActivate::768-895         2314      8.17%     75.34% # Bytes accessed per row activation (Byte)
system.mem_ctrls.dram.bytesPerActivate::896-1023         1029      3.63%     78.97% # Bytes accessed per row activation (Byte)
system.mem_ctrls.dram.bytesPerActivate::1024-1151         5956     21.03%    100.00% # Bytes accessed per row activation (Byte)
system.mem_ctrls.dram.bytesPerActivate::total        28321                       # Bytes accessed per row activation (Byte)
system.mem_ctrls.dram.bytesRead               8010880                       # Total bytes read (Byte)
system.mem_ctrls.dram.bytesWritten            6184896                       # Total bytes written (Byte)
system.mem_ctrls.dram.avgRdBW             1612.585238                       # Average DRAM read bandwidth in MiBytes/s ((Byte/Second))
system.mem_ctrls.dram.avgWrBW             1245.015777                       # Average DRAM write bandwidth in MiBytes/s ((Byte/Second))
system.mem_ctrls.dram.peakBW                 12800.00                       # Theoretical peak bandwidth in MiByte/s ((Byte/Second))
system.mem_ctrls.dram.busUtil                   22.33                       # Data bus utilization in percentage (Ratio)
system.mem_ctrls.dram.busUtilRead               12.60                       # Data bus utilization in percentage for reads (Ratio)
system.mem_ctrls.dram.busUtilWrite               9.73                       # Data bus utilization in percentage for writes (Ratio)
system.mem_ctrls.dram.pageHitRate               87.23                       # Row buffer hit rate, read and write combined (Ratio)
system.mem_ctrls.dram.power_state.pwrStateResidencyTicks::UNDEFINED   4967725000                       # Cumulative time (in ticks) in various power states (Tick)
system.mem_ctrls.dram.rank0.actEnergy       100038540                       # Energy for activate commands per rank (pJ) (Joule)
system.mem_ctrls.dram.rank0.preEnergy        53171745                       # Energy for precharge commands per rank (pJ) (Joule)
system.mem_ctrls.dram.rank0.readEnergy      444871980                       # Energy for read commands per rank (pJ) (Joule)
system.mem_ctrls.dram.rank0.writeEnergy     252282600                       # Energy for write commands per rank (pJ) (Joule)
system.mem_ctrls.dram.rank0.refreshEnergy 392140320.000000                       # Energy for refresh commands per rank (pJ) (Joule)
system.mem_ctrls.dram.rank0.actBackEnergy   2152220820                       # Energy for active background per rank (pJ) (Joule)
system.mem_ctrls.dram.rank0.preBackEnergy     95290080                       # Energy for precharge background per rank (pJ) (Joule)
system.mem_ctrls.dram.rank0.actPowerDownEnergy            0                       # Energy for active power-down per rank (pJ) (Joule)
system.mem_ctrls.dram.rank0.prePowerDownEnergy            0                       # Energy for precharge power-down per rank (pJ) (Joule)
system.mem_ctrls.dram.rank0.selfRefreshEnergy            0                       # Energy for self refresh per rank (pJ) (Joule)
system.mem_ctrls.dram.rank0.totalEnergy    3490016085                       # Total energy per rank (pJ) (Joule)
system.mem_ctrls.dram.rank0.averagePower   702.538100                       # Core power per rank (mW) (Watt)
system.mem_ctrls.dram.rank0.totalIdleTime            0                       # Total Idle time Per DRAM Rank (Tick)
system.mem_ctrls.dram.rank0.pwrStateTime::IDLE    228837750                       # Time in different power states (Tick)
system.mem_ctrls.dram.rank0.pwrStateTime::REF    165657500                       # Time in different power states (Tick)
system.mem_ctrls.dram.rank0.pwrStateTime::SREF            0                       # Time in different power states (Tick)
system.mem_ctrls.dram.rank0.pwrStateTime::PRE_PDN            0                       # Time in different power states (Tick)
system.mem_ctrls.dram.rank0.pwrStateTime::ACT   4573229750                       # Time in different power states (Tick)
system.mem_ctrls.dram.rank0.pwrStateTime::ACT_PDN            0                       # Time in different power states (Tick)
system.mem_ctrls.dram.rank1.actEnergy       102173400                       # Energy for activate commands per rank (pJ) (Joule)
system.mem_ctrls.dram.rank1.preEnergy        54306450                       # Energy for precharge commands per rank (pJ) (Joule)
system.mem_ctrls.dram.rank1.readEnergy      448841820                       # Energy for read commands per rank (pJ) (Joule)
system.mem_ctrls.dram.rank1.writeEnergy     252172980                       # Energy for write commands per rank (pJ) (Joule)
system.mem_ctrls.dram.rank1.refreshEnergy 392140320.000000                       # Energy for refresh commands per rank (pJ) (Joule)
system.mem_ctrls.dram.rank1.actBackEnergy   2177663340                       # Energy for active background per rank (pJ) (Joule)
system.mem_ctrls.dram.rank1.preBackEnergy     73847040                       # Energy for precharge background per rank (pJ) (Joule)
system.mem_ctrls.dram.rank1.actPowerDownEnergy            0                       # Energy for active power-down per rank (pJ) (Joule)
system.mem_ctrls.dram.rank1.prePowerDownEnergy            0                       # Energy for precharge power-down per rank (pJ) (Joule)
system.mem_ctrls.dram.rank1.selfRefreshEnergy            0                       # Energy for self refresh per rank (pJ) (Joule)
system.mem_ctrls.dram.rank1.totalEnergy    3501145350                       # Total energy per rank (pJ) (Joule)
system.mem_ctrls.dram.rank1.averagePower   704.778415                       # Core power per rank (mW) (Watt)
system.mem_ctrls.dram.rank1.totalIdleTime            0                       # Total Idle time Per DRAM Rank (Tick)
system.mem_ctrls.dram.rank1.pwrStateTime::IDLE    173380750                       # Time in different power states (Tick)
system.mem_ctrls.dram.rank1.pwrStateTime::REF    165703750                       # Time in different power states (Tick)
system.mem_ctrls.dram.rank1.pwrStateTime::SREF            0                       # Time in different power states (Tick)
system.mem_ctrls.dram.rank1.pwrStateTime::PRE_PDN            0                       # Time in different power states (Tick)
system.mem_ctrls.dram.rank1.pwrStateTime::ACT   4628640500                       # Time in different power states (Tick)
system.mem_ctrls.dram.rank1.pwrStateTime::ACT_PDN            0                       # Time in different power states (Tick)
system.mem_ctrls.power_state.pwrStateResidencyTicks::UNDEFINED   4967725000                       # Cumulative time (in ticks) in various power states (Tick)
system.membus.transDist::ReadResp              123712                       # Transaction distribution (Count)
system.membus.transDist::WritebackDirty         96669                       # Transaction distribution (Count)
system.membus.transDist::CleanEvict             24488                       # Transaction distribution (Count)
system.membus.transDist::ReadExReq               1480                       # Transaction distribution (Count)
system.membus.transDist::ReadExResp              1480                       # Transaction distribution (Count)
system.membus.transDist::ReadSharedReq         123712                       # Transaction distribution (Count)
system.membus.transDist::InvalidateReq            141                       # Transaction distribution (Count)
system.membus.pktCount_system.l2.mem_side_port::system.mem_ctrls.port       371682                       # Packet count per connected requestor and responder (Count)
system.membus.pktCount::total                  371682                       # Packet count per connected requestor and responder (Count)
system.membus.pktSize_system.l2.mem_side_port::system.mem_ctrls.port     14199104                       # Cumulative packet size per connected requestor and responder (Byte)
system.membus.pktSize::total                 14199104                       # Cumulative packet size per connected requestor and responder (Byte)
system.membus.snoops                                0                       # Total snoops (Count)
system.membus.snoopTraffic                          0                       # Total snoop traffic (Byte)
system.membus.snoopFanout::samples             125333                       # Request fanout histogram (Count)
system.membus.snoopFanout::mean                     0                       # Request fanout histogram (Count)
system.membus.snoopFanout::stdev                    0                       # Request fanout histogram (Count)
system.membus.snoopFanout::underflows               0      0.00%      0.00% # Request fanout histogram (Count)
system.membus.snoopFanout::0                   125333    100.00%    100.00% # Request fanout histogram (Count)
system.membus.snoopFanout::1                        0      0.00%    100.00% # Request fanout histogram (Count)
system.membus.snoopFanout::overflows                0      0.00%    100.00% # Request fanout histogram (Count)
system.membus.snoopFanout::min_value                0                       # Request fanout histogram (Count)
system.membus.snoopFanout::max_value                0                       # Request fanout histogram (Count)
system.membus.snoopFanout::total               125333                       # Request fanout histogram (Count)
system.membus.power_state.pwrStateResidencyTicks::UNDEFINED   4967725000                       # Cumulative time (in ticks) in various power states (Tick)
system.membus.reqLayer0.occupancy           657735000                       # Layer occupancy (ticks) (Tick)
system.membus.reqLayer0.utilization               0.1                       # Layer utilization (Ratio)
system.membus.respLayer1.occupancy          659560000                       # Layer occupancy (ticks) (Tick)
system.membus.respLayer1.utilization              0.1                       # Layer utilization (Ratio)
system.membus.snoop_filter.totRequests         246490                       # Total number of requests made to the snoop filter. (Count)
system.membus.snoop_filter.hitSingleRequests       121157                       # Number of requests hitting in the snoop filter with a single holder of the requested data. (Count)
system.membus.snoop_filter.hitMultiRequests            0                       # Number of requests hitting in the snoop filter with multiple (>1) holders of the requested data. (Count)
system.membus.snoop_filter.totSnoops                0                       # Total number of snoops made to the snoop filter. (Count)
system.membus.snoop_filter.hitSingleSnoops            0                       # Number of snoops hitting in the snoop filter with a single holder of the requested data. (Count)
system.membus.snoop_filter.hitMultiSnoops            0                       # Number of snoops hitting in the snoop filter with multiple (>1) holders of the requested data. (Count)
system.tol2bus.transDist::ReadResp             163817                       # Transaction distribution (Count)
system.tol2bus.transDist::WritebackDirty       196565                       # Transaction distribution (Count)
system.tol2bus.transDist::WritebackClean         1807                       # Transaction distribution (Count)
system.tol2bus.transDist::CleanEvict            88208                       # Transaction distribution (Count)
system.tol2bus.transDist::ReadExReq              2120                       # Transaction distribution (Count)
system.tol2bus.transDist::ReadExResp             2120                       # Transaction distribution (Count)
system.tol2bus.transDist::ReadCleanReq           2064                       # Transaction distribution (Count)
system.tol2bus.transDist::ReadSharedReq        161754                       # Transaction distribution (Count)
system.tol2bus.transDist::InvalidateReq           141                       # Transaction distribution (Count)
system.tol2bus.transDist::InvalidateResp          141                       # Transaction distribution (Count)
system.tol2bus.pktCount_system.cpu.icache.mem_side_port::system.l2.cpu_side_port         5934                       # Packet count per connected requestor and responder (Count)
system.tol2bus.pktCount_system.cpu.dcache.mem_side_port::system.l2.cpu_side_port       491021                       # Packet count per connected requestor and responder (Count)
system.tol2bus.pktCount::total                 496955                       # Packet count per connected requestor and responder (Count)
system.tol2bus.pktSize_system.cpu.icache.mem_side_port::system.l2.cpu_side_port       247680                       # Cumulative packet size per connected requestor and responder (Byte)
system.tol2bus.pktSize_system.cpu.dcache.mem_side_port::system.l2.cpu_side_port     16881216                       # Cumulative packet size per connected requestor and responder (Byte)
system.tol2bus.pktSize::total                17128896                       # Cumulative packet size per connected requestor and responder (Byte)
system.tol2bus.snoops                          121782                       # Total snoops (Count)
system.tol2bus.snoopTraffic                   6186880                       # Total snoop traffic (Byte)
system.tol2bus.snoopFanout::samples            287861                       # Request fanout histogram (Count)
system.tol2bus.snoopFanout::mean             0.002786                       # Request fanout histogram (Count)
system.tol2bus.snoopFanout::stdev            0.052710                       # Request fanout histogram (Count)
system.tol2bus.snoopFanout::underflows              0      0.00%      0.00% # Request fanout histogram (Count)
system.tol2bus.snoopFanout::0                  287059     99.72%     99.72% # Request fanout histogram (Count)
system.tol2bus.snoopFanout::1                     802      0.28%    100.00% # Request fanout histogram (Count)
system.tol2bus.snoopFanout::2                       0      0.00%    100.00% # Request fanout histogram (Count)
system.tol2bus.snoopFanout::overflows               0      0.00%    100.00% # Request fanout histogram (Count)
system.tol2bus.snoopFanout::min_value               0                       # Request fanout histogram (Count)
system.tol2bus.snoopFanout::max_value               1                       # Request fanout histogram (Count)
system.tol2bus.snoopFanout::total              287861                       # Request fanout histogram (Count)
system.tol2bus.power_state.pwrStateResidencyTicks::UNDEFINED   4967725000                       # Cumulative time (in ticks) in various power states (Tick)
system.tol2bus.reqLayer0.occupancy          267140500                       # Layer occupancy (ticks) (Tick)
system.tol2bus.reqLayer0.utilization              0.1                       # Layer utilization (Ratio)
system.tol2bus.respLayer0.occupancy           3095498                       # Layer occupancy (ticks) (Tick)
system.tol2bus.respLayer0.utilization             0.0                       # Layer utilization (Ratio)
system.tol2bus.respLayer1.occupancy         245881500                       # Layer occupancy (ticks) (Tick)
system.tol2bus.respLayer1.utilization             0.0                       # Layer utilization (Ratio)
system.tol2bus.snoop_filter.totRequests        330877                       # Total number of requests made to the snoop filter. (Count)
system.tol2bus.snoop_filter.hitSingleRequests       164798                       # Number of requests hitting in the snoop filter with a single holder of the requested data. (Count)
system.tol2bus.snoop_filter.hitMultiRequests            1                       # Number of requests hitting in the snoop filter with multiple (>1) holders of the requested data. (Count)
system.tol2bus.snoop_filter.totSnoops             801                       # Total number of snoops made to the snoop filter. (Count)
system.tol2bus.snoop_filter.hitSingleSnoops          801                       # Number of snoops hitting in the snoop filter with a single holder of the requested data. (Count)
system.tol2bus.snoop_filter.hitMultiSnoops            0                       # Number of snoops hitting in the snoop filter with multiple (>1) holders of the requested data. (Count)
system.voltage_domain.voltage                       1                       # Voltage in Volts (Volt)
system.workload.inst.arm                            0                       # number of arm instructions executed (Count)
system.workload.inst.quiesce                        0                       # number of quiesce instructions executed (Count)

---------- End Simulation Statistics   ----------
