
---------- Begin Simulation Statistics ----------
simSeconds                                   0.009892                       # Number of seconds simulated (Second)
simTicks                                   9892110000                       # Number of ticks simulated (Tick)
finalTick                                  9892110000                       # Number of ticks from beginning of simulation (restored from checkpoints and never reset) (Tick)
simFreq                                  1000000000000                       # The number of ticks per simulated second ((Tick/Second))
hostSeconds                                    134.74                       # Real time elapsed on the host (Second)
hostTickRate                                 73415658                       # The number of ticks simulated per host second (ticks/s) ((Tick/Second))
hostMemory                                     681144                       # Number of bytes of host memory used (Byte)
simInsts                                     44186241                       # Number of instructions simulated (Count)
simOps                                       52629166                       # Number of ops (including micro ops) simulated (Count)
hostInstRate                                   327934                       # Simulator instruction rate (inst/s) ((Count/Second))
hostOpRate                                     390594                       # Simulator op (including micro ops) rate (op/s) ((Count/Second))
system.clk_domain.clock                          1000                       # Clock period in ticks (Tick)
system.cpu.numCycles                         19784221                       # Number of cpu cycles simulated (Cycle)
system.cpu.numWorkItemsStarted                      0                       # Number of work items this cpu started (Count)
system.cpu.numWorkItemsCompleted                    0                       # Number of work items this cpu completed (Count)
system.cpu.instsAdded                        53228310                       # Number of instructions added to the IQ (excludes non-spec) (Count)
system.cpu.nonSpecInstsAdded                      408                       # Number of non-speculative instructions added to the IQ (Count)
system.cpu.instsIssued                       53028121                       # Number of instructions issued (Count)
system.cpu.squashedInstsIssued                   2094                       # Number of squashed instructions issued (Count)
system.cpu.squashedInstsExamined               599551                       # Number of squashed instructions iterated over during squash; mainly for profiling (Count)
system.cpu.squashedOperandsExamined            517914                       # Number of squashed operands that are examined and possibly removed from graph (Count)
system.cpu.squashedNonSpecRemoved                 135                       # Number of squashed non-spec instructions that were removed (Count)
system.cpu.numIssuedDist::samples            19640894                       # Number of insts issued each cycle (Count)
system.cpu.numIssuedDist::mean               2.699883                       # Number of insts issued each cycle (Count)
system.cpu.numIssuedDist::stdev              3.009684                       # Number of insts issued each cycle (Count)
system.cpu.numIssuedDist::underflows                0      0.00%      0.00% # Number of insts issued each cycle (Count)
system.cpu.numIssuedDist::0                   9087133     46.27%     46.27% # Number of insts issued each cycle (Count)
system.cpu.numIssuedDist::1                   1134652      5.78%     52.04% # Number of insts issued each cycle (Count)
system.cpu.numIssuedDist::2                    852789      4.34%     56.39% # Number of insts issued each cycle (Count)
system.cpu.numIssuedDist::3                   1013458      5.16%     61.55% # Number of insts issued each cycle (Count)
system.cpu.numIssuedDist::4                    905093      4.61%     66.15% # Number of insts issued each cycle (Count)
system.cpu.numIssuedDist::5                   1295280      6.59%     72.75% # Number of insts issued each cycle (Count)
system.cpu.numIssuedDist::6                   2264327     11.53%     84.28% # Number of insts issued each cycle (Count)
system.cpu.numIssuedDist::7                   1240513      6.32%     90.59% # Number of insts issued each cycle (Count)
system.cpu.numIssuedDist::8                   1847649      9.41%    100.00% # Number of insts issued each cycle (Count)
system.cpu.numIssuedDist::overflows                 0      0.00%    100.00% # Number of insts issued each cycle (Count)
system.cpu.numIssuedDist::min_value                 0                       # Number of insts issued each cycle (Count)
system.cpu.numIssuedDist::max_value                 8                       # Number of insts issued each cycle (Count)
system.cpu.numIssuedDist::total              19640894                       # Number of insts issued each cycle (Count)
system.cpu.statFuBusy::No_OpClass                   0      0.00%      0.00% # attempts to use FU when none available (Count)
system.cpu.statFuBusy::IntAlu                   20055      8.93%      8.93% # attempts to use FU when none available (Count)
system.cpu.statFuBusy::IntMult                   1782      0.79%      9.72% # attempts to use FU when none available (Count)
system.cpu.statFuBusy::IntDiv                    1192      0.53%     10.25% # attempts to use FU when none available (Count)
system.cpu.statFuBusy::FloatAdd                     0      0.00%     10.25% # attempts to use FU when none available (Count)
system.cpu.statFuBusy::FloatCmp                     0      0.00%     10.25% # attempts to use FU when none available (Count)
system.cpu.statFuBusy::FloatCvt                     0      0.00%     10.25% # attempts to use FU when none available (Count)
system.cpu.statFuBusy::FloatMult                    0      0.00%     10.25% # attempts to use FU when none available (Count)
system.cpu.statFuBusy::FloatMultAcc                 0      0.00%     10.25% # attempts to use FU when none available (Count)
system.cpu.statFuBusy::FloatDiv                     0      0.00%     10.25% # attempts to use FU when none available (Count)
system.cpu.statFuBusy::FloatMisc                    0      0.00%     10.25% # attempts to use FU when none available (Count)
system.cpu.statFuBusy::FloatSqrt                    0      0.00%     10.25% # attempts to use FU when none available (Count)
system.cpu.statFuBusy::SimdAdd                   1262      0.56%     10.81% # attempts to use FU when none available (Count)
system.cpu.statFuBusy::SimdAddAcc                   0      0.00%     10.81% # attempts to use FU when none available (Count)
system.cpu.statFuBusy::SimdAlu                  59611     26.54%     37.35% # attempts to use FU when none available (Count)
system.cpu.statFuBusy::SimdCmp                     17      0.01%     37.36% # attempts to use FU when none available (Count)
system.cpu.statFuBusy::SimdCvt                      0      0.00%     37.36% # attempts to use FU when none available (Count)
system.cpu.statFuBusy::SimdMisc                     9      0.00%     37.37% # attempts to use FU when none available (Count)
system.cpu.statFuBusy::SimdMult                     0      0.00%     37.37% # attempts to use FU when none available (Count)
system.cpu.statFuBusy::SimdMultAcc                  0      0.00%     37.37% # attempts to use FU when none available (Count)
system.cpu.statFuBusy::SimdShift                    0      0.00%     37.37% # attempts to use FU when none available (Count)
system.cpu.statFuBusy::SimdShiftAcc                 0      0.00%     37.37% # attempts to use FU when none available (Count)
system.cpu.statFuBusy::SimdDiv                      0      0.00%     37.37% # attempts to use FU when none available (Count)
system.cpu.statFuBusy::SimdSqrt                     0      0.00%     37.37% # attempts to use FU when none available (Count)
system.cpu.statFuBusy::SimdFloatAdd                 0      0.00%     37.37% # attempts to use FU when none available (Count)
system.cpu.statFuBusy::SimdFloatAlu                 0      0.00%     37.37% # attempts to use FU when none available (Count)
system.cpu.statFuBusy::SimdFloatCmp                 0      0.00%     37.37% # attempts to use FU when none available (Count)
system.cpu.statFuBusy::SimdFloatCvt                 0      0.00%     37.37% # attempts to use FU when none available (Count)
system.cpu.statFuBusy::SimdFloatDiv                 0      0.00%     37.37% # attempts to use FU when none available (Count)
system.cpu.statFuBusy::SimdFloatMisc                0      0.00%     37.37% # attempts to use FU when none available (Count)
system.cpu.statFuBusy::SimdFloatMult                0      0.00%     37.37% # attempts to use FU when none available (Count)
system.cpu.statFuBusy::SimdFloatMultAcc             0      0.00%     37.37% # attempts to use FU when none available (Count)
system.cpu.statFuBusy::SimdFloatSqrt                0      0.00%     37.37% # attempts to use FU when none available (Count)
system.cpu.statFuBusy::SimdReduceAdd                0      0.00%     37.37% # attempts to use FU when none available (Count)
system.cpu.statFuBusy::SimdReduceAlu                0      0.00%     37.37% # attempts to use FU when none available (Count)
system.cpu.statFuBusy::SimdReduceCmp                0      0.00%     37.37% # attempts to use FU when none available (Count)
system.cpu.statFuBusy::SimdFloatReduceAdd            0      0.00%     37.37% # attempts to use FU when none available (Count)
system.cpu.statFuBusy::SimdFloatReduceCmp            0      0.00%     37.37% # attempts to use FU when none available (Count)
system.cpu.statFuBusy::SimdAes                      0      0.00%     37.37% # attempts to use FU when none available (Count)
system.cpu.statFuBusy::SimdAesMix                   0      0.00%     37.37% # attempts to use FU when none available (Count)
system.cpu.statFuBusy::SimdSha1Hash                 0      0.00%     37.37% # attempts to use FU when none available (Count)
system.cpu.statFuBusy::SimdSha1Hash2                0      0.00%     37.37% # attempts to use FU when none available (Count)
system.cpu.statFuBusy::SimdSha256Hash               0      0.00%     37.37% # attempts to use FU when none available (Count)
system.cpu.statFuBusy::SimdSha256Hash2              0      0.00%     37.37% # attempts to use FU when none available (Count)
system.cpu.statFuBusy::SimdShaSigma2                0      0.00%     37.37% # attempts to use FU when none available (Count)
system.cpu.statFuBusy::SimdShaSigma3                0      0.00%     37.37% # attempts to use FU when none available (Count)
system.cpu.statFuBusy::SimdPredAlu                  0      0.00%     37.37% # attempts to use FU when none available (Count)
system.cpu.statFuBusy::MemRead                 125685     55.96%     93.32% # attempts to use FU when none available (Count)
system.cpu.statFuBusy::MemWrite                 15001      6.68%    100.00% # attempts to use FU when none available (Count)
system.cpu.statFuBusy::FloatMemRead                 0      0.00%    100.00% # attempts to use FU when none available (Count)
system.cpu.statFuBusy::FloatMemWrite                0      0.00%    100.00% # attempts to use FU when none available (Count)
system.cpu.statFuBusy::IprAccess                    0      0.00%    100.00% # attempts to use FU when none available (Count)
system.cpu.statFuBusy::InstPrefetch                 0      0.00%    100.00% # attempts to use FU when none available (Count)
system.cpu.statIssuedInstType_0::No_OpClass      3270469      6.17%      6.17% # Number of instructions issued per FU type, per thread (Count)
system.cpu.statIssuedInstType_0::IntAlu      16333905     30.80%     36.97% # Number of instructions issued per FU type, per thread (Count)
system.cpu.statIssuedInstType_0::IntMult      1101483      2.08%     39.05% # Number of instructions issued per FU type, per thread (Count)
system.cpu.statIssuedInstType_0::IntDiv          2712      0.01%     39.05% # Number of instructions issued per FU type, per thread (Count)
system.cpu.statIssuedInstType_0::FloatAdd            0      0.00%     39.05% # Number of instructions issued per FU type, per thread (Count)
system.cpu.statIssuedInstType_0::FloatCmp            0      0.00%     39.05% # Number of instructions issued per FU type, per thread (Count)
system.cpu.statIssuedInstType_0::FloatCvt            0      0.00%     39.05% # Number of instructions issued per FU type, per thread (Count)
system.cpu.statIssuedInstType_0::FloatMult            0      0.00%     39.05% # Number of instructions issued per FU type, per thread (Count)
system.cpu.statIssuedInstType_0::FloatMultAcc            0      0.00%     39.05% # Number of instructions issued per FU type, per thread (Count)
system.cpu.statIssuedInstType_0::FloatDiv            0      0.00%     39.05% # Number of instructions issued per FU type, per thread (Count)
system.cpu.statIssuedInstType_0::FloatMisc            2      0.00%     39.05% # Number of instructions issued per FU type, per thread (Count)
system.cpu.statIssuedInstType_0::FloatSqrt            0      0.00%     39.05% # Number of instructions issued per FU type, per thread (Count)
system.cpu.statIssuedInstType_0::SimdAdd      6308594     11.90%     50.95% # Number of instructions issued per FU type, per thread (Count)
system.cpu.statIssuedInstType_0::SimdAddAcc            0      0.00%     50.95% # Number of instructions issued per FU type, per thread (Count)
system.cpu.statIssuedInstType_0::SimdAlu     10688628     20.16%     71.11% # Number of instructions issued per FU type, per thread (Count)
system.cpu.statIssuedInstType_0::SimdCmp          125      0.00%     71.11% # Number of instructions issued per FU type, per thread (Count)
system.cpu.statIssuedInstType_0::SimdCvt            0      0.00%     71.11% # Number of instructions issued per FU type, per thread (Count)
system.cpu.statIssuedInstType_0::SimdMisc      4351437      8.21%     79.31% # Number of instructions issued per FU type, per thread (Count)
system.cpu.statIssuedInstType_0::SimdMult            0      0.00%     79.31% # Number of instructions issued per FU type, per thread (Count)
system.cpu.statIssuedInstType_0::SimdMultAcc            0      0.00%     79.31% # Number of instructions issued per FU type, per thread (Count)
system.cpu.statIssuedInstType_0::SimdShift            0      0.00%     79.31% # Number of instructions issued per FU type, per thread (Count)
system.cpu.statIssuedInstType_0::SimdShiftAcc            0      0.00%     79.31% # Number of instructions issued per FU type, per thread (Count)
system.cpu.statIssuedInstType_0::SimdDiv            0      0.00%     79.31% # Number of instructions issued per FU type, per thread (Count)
system.cpu.statIssuedInstType_0::SimdSqrt            0      0.00%     79.31% # Number of instructions issued per FU type, per thread (Count)
system.cpu.statIssuedInstType_0::SimdFloatAdd            0      0.00%     79.31% # Number of instructions issued per FU type, per thread (Count)
system.cpu.statIssuedInstType_0::SimdFloatAlu            0      0.00%     79.31% # Number of instructions issued per FU type, per thread (Count)
system.cpu.statIssuedInstType_0::SimdFloatCmp            0      0.00%     79.31% # Number of instructions issued per FU type, per thread (Count)
system.cpu.statIssuedInstType_0::SimdFloatCvt            0      0.00%     79.31% # Number of instructions issued per FU type, per thread (Count)
system.cpu.statIssuedInstType_0::SimdFloatDiv            0      0.00%     79.31% # Number of instructions issued per FU type, per thread (Count)
system.cpu.statIssuedInstType_0::SimdFloatMisc            0      0.00%     79.31% # Number of instructions issued per FU type, per thread (Count)
system.cpu.statIssuedInstType_0::SimdFloatMult            0      0.00%     79.31% # Number of instructions issued per FU type, per thread (Count)
system.cpu.statIssuedInstType_0::SimdFloatMultAcc            0      0.00%     79.31% # Number of instructions issued per FU type, per thread (Count)
system.cpu.statIssuedInstType_0::SimdFloatSqrt            0      0.00%     79.31% # Number of instructions issued per FU type, per thread (Count)
system.cpu.statIssuedInstType_0::SimdReduceAdd            0      0.00%     79.31% # Number of instructions issued per FU type, per thread (Count)
system.cpu.statIssuedInstType_0::SimdReduceAlu            0      0.00%     79.31% # Number of instructions issued per FU type, per thread (Count)
system.cpu.statIssuedInstType_0::SimdReduceCmp            0      0.00%     79.31% # Number of instructions issued per FU type, per thread (Count)
system.cpu.statIssuedInstType_0::SimdFloatReduceAdd            0      0.00%     79.31% # Number of instructions issued per FU type, per thread (Count)
system.cpu.statIssuedInstType_0::SimdFloatReduceCmp            0      0.00%     79.31% # Number of instructions issued per FU type, per thread (Count)
system.cpu.statIssuedInstType_0::SimdAes            0      0.00%     79.31% # Number of instructions issued per FU type, per thread (Count)
system.cpu.statIssuedInstType_0::SimdAesMix            0      0.00%     79.31% # Number of instructions issued per FU type, per thread (Count)
system.cpu.statIssuedInstType_0::SimdSha1Hash            0      0.00%     79.31% # Number of instructions issued per FU type, per thread (Count)
system.cpu.statIssuedInstType_0::SimdSha1Hash2            0      0.00%     79.31% # Number of instructions issued per FU type, per thread (Count)
system.cpu.statIssuedInstType_0::SimdSha256Hash            0      0.00%     79.31% # Number of instructions issued per FU type, per thread (Count)
system.cpu.statIssuedInstType_0::SimdSha256Hash2            0      0.00%     79.31% # Number of instructions issued per FU type, per thread (Count)
system.cpu.statIssuedInstType_0::SimdShaSigma2            0      0.00%     79.31% # Number of instructions issued per FU type, per thread (Count)
system.cpu.statIssuedInstType_0::SimdShaSigma3            0      0.00%     79.31% # Number of instructions issued per FU type, per thread (Count)
system.cpu.statIssuedInstType_0::SimdPredAlu            0      0.00%     79.31% # Number of instructions issued per FU type, per thread (Count)
system.cpu.statIssuedInstType_0::MemRead      9661645     18.22%     97.53% # Number of instructions issued per FU type, per thread (Count)
system.cpu.statIssuedInstType_0::MemWrite      1309121      2.47%    100.00% # Number of instructions issued per FU type, per thread (Count)
system.cpu.statIssuedInstType_0::FloatMemRead            0      0.00%    100.00% # Number of instructions issued per FU type, per thread (Count)
system.cpu.statIssuedInstType_0::FloatMemWrite            0      0.00%    100.00% # Number of instructions issued per FU type, per thread (Count)
system.cpu.statIssuedInstType_0::IprAccess            0      0.00%    100.00% # Number of instructions issued per FU type, per thread (Count)
system.cpu.statIssuedInstType_0::InstPrefetch            0      0.00%    100.00% # Number of instructions issued per FU type, per thread (Count)
system.cpu.statIssuedInstType_0::total       53028121                       # Number of instructions issued per FU type, per thread (Count)
system.cpu.issueRate                         2.680324                       # Inst issue rate ((Count/Cycle))
system.cpu.fuBusy                              224614                       # FU busy when requested (Count)
system.cpu.fuBusyRate                        0.004236                       # FU busy rate (busy events/executed inst) ((Count/Count))
system.cpu.intInstQueueReads                 63428694                       # Number of integer instruction queue reads (Count)
system.cpu.intInstQueueWrites                22613365                       # Number of integer instruction queue writes (Count)
system.cpu.intInstQueueWakeupAccesses        21769198                       # Number of integer instruction queue wakeup accesses (Count)
system.cpu.fpInstQueueReads                         0                       # Number of floating instruction queue reads (Count)
system.cpu.fpInstQueueWrites                        0                       # Number of floating instruction queue writes (Count)
system.cpu.fpInstQueueWakeupAccesses                0                       # Number of floating instruction queue wakeup accesses (Count)
system.cpu.vecInstQueueReads                 62495150                       # Number of vector instruction queue reads (Count)
system.cpu.vecInstQueueWrites                31215058                       # Number of vector instruction queue writes (Count)
system.cpu.vecInstQueueWakeupAccesses        31161385                       # Number of vector instruction queue wakeup accesses (Count)
system.cpu.intAluAccesses                    21923951                       # Number of integer alu accesses (Count)
system.cpu.fpAluAccesses                            0                       # Number of floating point alu accesses (Count)
system.cpu.vecAluAccesses                    28058315                       # Number of vector alu accesses (Count)
system.cpu.numInsts                          53000539                       # Number of executed instructions (Count)
system.cpu.numLoadInsts                       9646333                       # Number of load instructions executed (Count)
system.cpu.numSquashedInsts                     27582                       # Number of squashed instructions skipped in execute (Count)
system.cpu.numSwp                                   0                       # Number of swp insts executed (Count)
system.cpu.numNop                                 435                       # Number of nop insts executed (Count)
system.cpu.numRefs                           10953654                       # Number of memory reference insts executed (Count)
system.cpu.numBranches                        2489517                       # Number of branches executed (Count)
system.cpu.numStoreInsts                      1307321                       # Number of stores executed (Count)
system.cpu.numRate                           2.678930                       # Inst execution rate ((Count/Cycle))
system.cpu.timesIdled                            1507                       # Number of times that the entire CPU went into an idle state and unscheduled itself (Count)
system.cpu.idleCycles                          143327                       # Total number of cycles that the CPU has spent unscheduled due to idling (Cycle)
system.cpu.committedInsts                    44186241                       # Number of Instructions Simulated (Count)
system.cpu.committedOps                      52629166                       # Number of Ops (including micro ops) Simulated (Count)
system.cpu.cpi                               0.447746                       # CPI: Cycles Per Instruction ((Cycle/Count))
system.cpu.totalCpi                          0.447746                       # CPI: Total CPI of All Threads ((Cycle/Count))
system.cpu.ipc                               2.233408                       # IPC: Instructions Per Cycle ((Count/Cycle))
system.cpu.totalIpc                          2.233408                       # IPC: Total IPC of All Threads ((Count/Cycle))
system.cpu.intRegfileReads                   40956279                       # Number of integer regfile reads (Count)
system.cpu.intRegfileWrites                  19828631                       # Number of integer regfile writes (Count)
system.cpu.vecRegfileReads                   76071030                       # number of vector regfile reads (Count)
system.cpu.ccRegfileReads                     7760997                       # number of cc regfile reads (Count)
system.cpu.ccRegfileWrites                    7756305                       # number of cc regfile writes (Count)
system.cpu.miscRegfileReads                  56076345                       # number of misc regfile reads (Count)
system.cpu.miscRegfileWrites                      213                       # number of misc regfile writes (Count)
system.cpu.MemDepUnit__0.insertedLoads        9644862                       # Number of loads inserted to the mem dependence unit. (Count)
system.cpu.MemDepUnit__0.insertedStores       1315304                       # Number of stores inserted to the mem dependence unit. (Count)
system.cpu.MemDepUnit__0.conflictingLoads       485232                       # Number of conflicting loads. (Count)
system.cpu.MemDepUnit__0.conflictingStores        18051                       # Number of conflicting stores. (Count)
system.cpu.MemDepUnit__1.insertedLoads              0                       # Number of loads inserted to the mem dependence unit. (Count)
system.cpu.MemDepUnit__1.insertedStores             0                       # Number of stores inserted to the mem dependence unit. (Count)
system.cpu.MemDepUnit__1.conflictingLoads            0                       # Number of conflicting loads. (Count)
system.cpu.MemDepUnit__1.conflictingStores            0                       # Number of conflicting stores. (Count)
system.cpu.MemDepUnit__2.insertedLoads              0                       # Number of loads inserted to the mem dependence unit. (Count)
system.cpu.MemDepUnit__2.insertedStores             0                       # Number of stores inserted to the mem dependence unit. (Count)
system.cpu.MemDepUnit__2.conflictingLoads            0                       # Number of conflicting loads. (Count)
system.cpu.MemDepUnit__2.conflictingStores            0                       # Number of conflicting stores. (Count)
system.cpu.MemDepUnit__3.insertedLoads              0                       # Number of loads inserted to the mem dependence unit. (Count)
system.cpu.MemDepUnit__3.insertedStores             0                       # Number of stores inserted to the mem dependence unit. (Count)
system.cpu.MemDepUnit__3.conflictingLoads            0                       # Number of conflicting loads. (Count)
system.cpu.MemDepUnit__3.conflictingStores            0                       # Number of conflicting stores. (Count)
system.cpu.branchPred.lookups                 2615498                       # Number of BP lookups (Count)
system.cpu.branchPred.condPredicted           2490759                       # Number of conditional branches predicted (Count)
system.cpu.branchPred.condIncorrect             17101                       # Number of conditional branches incorrect (Count)
system.cpu.branchPred.BTBLookups               333150                       # Number of BTB lookups (Count)
system.cpu.branchPred.BTBUpdates                 9526                       # Number of BTB updates (Count)
system.cpu.branchPred.BTBHits                  329387                       # Number of BTB hits (Count)
system.cpu.branchPred.BTBHitRatio            0.988705                       # BTB Hit Ratio (Ratio)
system.cpu.branchPred.RASUsed                   17573                       # Number of times the RAS was used to get a target. (Count)
system.cpu.branchPred.RASIncorrect                 40                       # Number of incorrect RAS predictions. (Count)
system.cpu.branchPred.indirectLookups            6663                       # Number of indirect predictor lookups. (Count)
system.cpu.branchPred.indirectHits               1345                       # Number of indirect target hits. (Count)
system.cpu.branchPred.indirectMisses             5318                       # Number of indirect misses. (Count)
system.cpu.branchPred.indirectMispredicted          664                       # Number of mispredicted indirect branches. (Count)
system.cpu.commit.commitSquashedInsts          594991                       # The number of squashed insts skipped by commit (Count)
system.cpu.commit.commitNonSpecStalls             273                       # The number of times commit has been forced to stall to communicate backwards (Count)
system.cpu.commit.branchMispredicts             17019                       # The number of times a branch was mispredicted (Count)
system.cpu.commit.numCommittedDist::samples     19547981                       # Number of insts commited each cycle (Count)
system.cpu.commit.numCommittedDist::mean     2.692313                       # Number of insts commited each cycle (Count)
system.cpu.commit.numCommittedDist::stdev     3.477003                       # Number of insts commited each cycle (Count)
system.cpu.commit.numCommittedDist::underflows            0      0.00%      0.00% # Number of insts commited each cycle (Count)
system.cpu.commit.numCommittedDist::0         9571805     48.97%     48.97% # Number of insts commited each cycle (Count)
system.cpu.commit.numCommittedDist::1         2702436     13.82%     62.79% # Number of insts commited each cycle (Count)
system.cpu.commit.numCommittedDist::2          790910      4.05%     66.84% # Number of insts commited each cycle (Count)
system.cpu.commit.numCommittedDist::3          152957      0.78%     67.62% # Number of insts commited each cycle (Count)
system.cpu.commit.numCommittedDist::4          506236      2.59%     70.21% # Number of insts commited each cycle (Count)
system.cpu.commit.numCommittedDist::5           77116      0.39%     70.60% # Number of insts commited each cycle (Count)
system.cpu.commit.numCommittedDist::6          210566      1.08%     71.68% # Number of insts commited each cycle (Count)
system.cpu.commit.numCommittedDist::7           75403      0.39%     72.07% # Number of insts commited each cycle (Count)
system.cpu.commit.numCommittedDist::8         5460552     27.93%    100.00% # Number of insts commited each cycle (Count)
system.cpu.commit.numCommittedDist::overflows            0      0.00%    100.00% # Number of insts commited each cycle (Count)
system.cpu.commit.numCommittedDist::min_value            0                       # Number of insts commited each cycle (Count)
system.cpu.commit.numCommittedDist::max_value            8                       # Number of insts commited each cycle (Count)
system.cpu.commit.numCommittedDist::total     19547981                       # Number of insts commited each cycle (Count)
system.cpu.commit.instsCommitted             44186359                       # Number of instructions committed (Count)
system.cpu.commit.opsCommitted               52629284                       # Number of ops (including micro ops) committed (Count)
system.cpu.commit.memRefs                    10805684                       # Number of memory references committed (Count)
system.cpu.commit.loads                       9527839                       # Number of loads committed (Count)
system.cpu.commit.amos                            106                       # Number of atomic instructions committed (Count)
system.cpu.commit.membars                         114                       # Number of memory barriers committed (Count)
system.cpu.commit.branches                    2438971                       # Number of branches committed (Count)
system.cpu.commit.vectorInstructions         31157194                       # Number of committed Vector instructions. (Count)
system.cpu.commit.floating                          0                       # Number of committed floating point instructions. (Count)
system.cpu.commit.integer                    30341221                       # Number of committed integer instructions. (Count)
system.cpu.commit.functionCalls                 11001                       # Number of function calls committed. (Count)
system.cpu.commit.committedInstType_0::No_OpClass      3268882      6.21%      6.21% # Class of committed instruction (Count)
system.cpu.commit.committedInstType_0::IntAlu     16104460     30.60%     36.81% # Class of committed instruction (Count)
system.cpu.commit.committedInstType_0::IntMult      1099357      2.09%     38.90% # Class of committed instruction (Count)
system.cpu.commit.committedInstType_0::IntDiv         2565      0.00%     38.90% # Class of committed instruction (Count)
system.cpu.commit.committedInstType_0::FloatAdd            0      0.00%     38.90% # Class of committed instruction (Count)
system.cpu.commit.committedInstType_0::FloatCmp            0      0.00%     38.90% # Class of committed instruction (Count)
system.cpu.commit.committedInstType_0::FloatCvt            0      0.00%     38.90% # Class of committed instruction (Count)
system.cpu.commit.committedInstType_0::FloatMult            0      0.00%     38.90% # Class of committed instruction (Count)
system.cpu.commit.committedInstType_0::FloatMultAcc            0      0.00%     38.90% # Class of committed instruction (Count)
system.cpu.commit.committedInstType_0::FloatDiv            0      0.00%     38.90% # Class of committed instruction (Count)
system.cpu.commit.committedInstType_0::FloatMisc            2      0.00%     38.90% # Class of committed instruction (Count)
system.cpu.commit.committedInstType_0::FloatSqrt            0      0.00%     38.90% # Class of committed instruction (Count)
system.cpu.commit.committedInstType_0::SimdAdd      6308495     11.99%     50.89% # Class of committed instruction (Count)
system.cpu.commit.committedInstType_0::SimdAddAcc            0      0.00%     50.89% # Class of committed instruction (Count)
system.cpu.commit.committedInstType_0::SimdAlu     10688369     20.31%     71.20% # Class of committed instruction (Count)
system.cpu.commit.committedInstType_0::SimdCmp           97      0.00%     71.20% # Class of committed instruction (Count)
system.cpu.commit.committedInstType_0::SimdCvt            0      0.00%     71.20% # Class of committed instruction (Count)
system.cpu.commit.committedInstType_0::SimdMisc      4351373      8.27%     79.47% # Class of committed instruction (Count)
system.cpu.commit.committedInstType_0::SimdMult            0      0.00%     79.47% # Class of committed instruction (Count)
system.cpu.commit.committedInstType_0::SimdMultAcc            0      0.00%     79.47% # Class of committed instruction (Count)
system.cpu.commit.committedInstType_0::SimdShift            0      0.00%     79.47% # Class of committed instruction (Count)
system.cpu.commit.committedInstType_0::SimdShiftAcc            0      0.00%     79.47% # Class of committed instruction (Count)
system.cpu.commit.committedInstType_0::SimdDiv            0      0.00%     79.47% # Class of committed instruction (Count)
system.cpu.commit.committedInstType_0::SimdSqrt            0      0.00%     79.47% # Class of committed instruction (Count)
system.cpu.commit.committedInstType_0::SimdFloatAdd            0      0.00%     79.47% # Class of committed instruction (Count)
system.cpu.commit.committedInstType_0::SimdFloatAlu            0      0.00%     79.47% # Class of committed instruction (Count)
system.cpu.commit.committedInstType_0::SimdFloatCmp            0      0.00%     79.47% # Class of committed instruction (Count)
system.cpu.commit.committedInstType_0::SimdFloatCvt            0      0.00%     79.47% # Class of committed instruction (Count)
system.cpu.commit.committedInstType_0::SimdFloatDiv            0      0.00%     79.47% # Class of committed instruction (Count)
system.cpu.commit.committedInstType_0::SimdFloatMisc            0      0.00%     79.47% # Class of committed instruction (Count)
system.cpu.commit.committedInstType_0::SimdFloatMult            0      0.00%     79.47% # Class of committed instruction (Count)
system.cpu.commit.committedInstType_0::SimdFloatMultAcc            0      0.00%     79.47% # Class of committed instruction (Count)
system.cpu.commit.committedInstType_0::SimdFloatSqrt            0      0.00%     79.47% # Class of committed instruction (Count)
system.cpu.commit.committedInstType_0::SimdReduceAdd            0      0.00%     79.47% # Class of committed instruction (Count)
system.cpu.commit.committedInstType_0::SimdReduceAlu            0      0.00%     79.47% # Class of committed instruction (Count)
system.cpu.commit.committedInstType_0::SimdReduceCmp            0      0.00%     79.47% # Class of committed instruction (Count)
system.cpu.commit.committedInstType_0::SimdFloatReduceAdd            0      0.00%     79.47% # Class of committed instruction (Count)
system.cpu.commit.committedInstType_0::SimdFloatReduceCmp            0      0.00%     79.47% # Class of committed instruction (Count)
system.cpu.commit.committedInstType_0::SimdAes            0      0.00%     79.47% # Class of committed instruction (Count)
system.cpu.commit.committedInstType_0::SimdAesMix            0      0.00%     79.47% # Class of committed instruction (Count)
system.cpu.commit.committedInstType_0::SimdSha1Hash            0      0.00%     79.47% # Class of committed instruction (Count)
system.cpu.commit.committedInstType_0::SimdSha1Hash2            0      0.00%     79.47% # Class of committed instruction (Count)
system.cpu.commit.committedInstType_0::SimdSha256Hash            0      0.00%     79.47% # Class of committed instruction (Count)
system.cpu.commit.committedInstType_0::SimdSha256Hash2            0      0.00%     79.47% # Class of committed instruction (Count)
system.cpu.commit.committedInstType_0::SimdShaSigma2            0      0.00%     79.47% # Class of committed instruction (Count)
system.cpu.commit.committedInstType_0::SimdShaSigma3            0      0.00%     79.47% # Class of committed instruction (Count)
system.cpu.commit.committedInstType_0::SimdPredAlu            0      0.00%     79.47% # Class of committed instruction (Count)
system.cpu.commit.committedInstType_0::MemRead      9527839     18.10%     97.57% # Class of committed instruction (Count)
system.cpu.commit.committedInstType_0::MemWrite      1277845      2.43%    100.00% # Class of committed instruction (Count)
system.cpu.commit.committedInstType_0::FloatMemRead            0      0.00%    100.00% # Class of committed instruction (Count)
system.cpu.commit.committedInstType_0::FloatMemWrite            0      0.00%    100.00% # Class of committed instruction (Count)
system.cpu.commit.committedInstType_0::IprAccess            0      0.00%    100.00% # Class of committed instruction (Count)
system.cpu.commit.committedInstType_0::InstPrefetch            0      0.00%    100.00% # Class of committed instruction (Count)
system.cpu.commit.committedInstType_0::total     52629284                       # Class of committed instruction (Count)
system.cpu.commit.commitEligibleSamples       5460552                       # number cycles where commit BW limit reached (Cycle)
system.cpu.dcache.demandHits::cpu.data       10243387                       # number of demand (read+write) hits (Count)
system.cpu.dcache.demandHits::total          10243387                       # number of demand (read+write) hits (Count)
system.cpu.dcache.overallHits::cpu.data      10243387                       # number of overall hits (Count)
system.cpu.dcache.overallHits::total         10243387                       # number of overall hits (Count)
system.cpu.dcache.demandMisses::cpu.data       294902                       # number of demand (read+write) misses (Count)
system.cpu.dcache.demandMisses::total          294902                       # number of demand (read+write) misses (Count)
system.cpu.dcache.overallMisses::cpu.data       294902                       # number of overall misses (Count)
system.cpu.dcache.overallMisses::total         294902                       # number of overall misses (Count)
system.cpu.dcache.demandMissLatency::cpu.data  22999094995                       # number of demand (read+write) miss ticks (Tick)
system.cpu.dcache.demandMissLatency::total  22999094995                       # number of demand (read+write) miss ticks (Tick)
system.cpu.dcache.overallMissLatency::cpu.data  22999094995                       # number of overall miss ticks (Tick)
system.cpu.dcache.overallMissLatency::total  22999094995                       # number of overall miss ticks (Tick)
system.cpu.dcache.demandAccesses::cpu.data     10538289                       # number of demand (read+write) accesses (Count)
system.cpu.dcache.demandAccesses::total      10538289                       # number of demand (read+write) accesses (Count)
system.cpu.dcache.overallAccesses::cpu.data     10538289                       # number of overall (read+write) accesses (Count)
system.cpu.dcache.overallAccesses::total     10538289                       # number of overall (read+write) accesses (Count)
system.cpu.dcache.demandMissRate::cpu.data     0.027984                       # miss rate for demand accesses (Ratio)
system.cpu.dcache.demandMissRate::total      0.027984                       # miss rate for demand accesses (Ratio)
system.cpu.dcache.overallMissRate::cpu.data     0.027984                       # miss rate for overall accesses (Ratio)
system.cpu.dcache.overallMissRate::total     0.027984                       # miss rate for overall accesses (Ratio)
system.cpu.dcache.demandAvgMissLatency::cpu.data 77988.942072                       # average overall miss latency in ticks ((Tick/Count))
system.cpu.dcache.demandAvgMissLatency::total 77988.942072                       # average overall miss latency in ticks ((Tick/Count))
system.cpu.dcache.overallAvgMissLatency::cpu.data 77988.942072                       # average overall miss latency ((Tick/Count))
system.cpu.dcache.overallAvgMissLatency::total 77988.942072                       # average overall miss latency ((Tick/Count))
system.cpu.dcache.blockedCycles::no_mshrs       100102                       # number of cycles access was blocked (Cycle)
system.cpu.dcache.blockedCycles::no_targets          537                       # number of cycles access was blocked (Cycle)
system.cpu.dcache.blockedCauses::no_mshrs         2159                       # number of times access was blocked (Count)
system.cpu.dcache.blockedCauses::no_targets           12                       # number of times access was blocked (Count)
system.cpu.dcache.avgBlocked::no_mshrs      46.364984                       # average number of cycles each access was blocked ((Cycle/Count))
system.cpu.dcache.avgBlocked::no_targets    44.750000                       # average number of cycles each access was blocked ((Cycle/Count))
system.cpu.dcache.writebacks::writebacks        29845                       # number of writebacks (Count)
system.cpu.dcache.writebacks::total             29845                       # number of writebacks (Count)
system.cpu.dcache.demandMshrHits::cpu.data       151247                       # number of demand (read+write) MSHR hits (Count)
system.cpu.dcache.demandMshrHits::total        151247                       # number of demand (read+write) MSHR hits (Count)
system.cpu.dcache.overallMshrHits::cpu.data       151247                       # number of overall MSHR hits (Count)
system.cpu.dcache.overallMshrHits::total       151247                       # number of overall MSHR hits (Count)
system.cpu.dcache.demandMshrMisses::cpu.data       143655                       # number of demand (read+write) MSHR misses (Count)
system.cpu.dcache.demandMshrMisses::total       143655                       # number of demand (read+write) MSHR misses (Count)
system.cpu.dcache.overallMshrMisses::cpu.data       143655                       # number of overall MSHR misses (Count)
system.cpu.dcache.overallMshrMisses::total       143655                       # number of overall MSHR misses (Count)
system.cpu.dcache.demandMshrMissLatency::cpu.data  11327995705                       # number of demand (read+write) MSHR miss ticks (Tick)
system.cpu.dcache.demandMshrMissLatency::total  11327995705                       # number of demand (read+write) MSHR miss ticks (Tick)
system.cpu.dcache.overallMshrMissLatency::cpu.data  11327995705                       # number of overall MSHR miss ticks (Tick)
system.cpu.dcache.overallMshrMissLatency::total  11327995705                       # number of overall MSHR miss ticks (Tick)
system.cpu.dcache.demandMshrMissRate::cpu.data     0.013632                       # mshr miss ratio for demand accesses (Ratio)
system.cpu.dcache.demandMshrMissRate::total     0.013632                       # mshr miss ratio for demand accesses (Ratio)
system.cpu.dcache.overallMshrMissRate::cpu.data     0.013632                       # mshr miss ratio for overall accesses (Ratio)
system.cpu.dcache.overallMshrMissRate::total     0.013632                       # mshr miss ratio for overall accesses (Ratio)
system.cpu.dcache.demandAvgMshrMissLatency::cpu.data 78855.561623                       # average overall mshr miss latency ((Tick/Count))
system.cpu.dcache.demandAvgMshrMissLatency::total 78855.561623                       # average overall mshr miss latency ((Tick/Count))
system.cpu.dcache.overallAvgMshrMissLatency::cpu.data 78855.561623                       # average overall mshr miss latency ((Tick/Count))
system.cpu.dcache.overallAvgMshrMissLatency::total 78855.561623                       # average overall mshr miss latency ((Tick/Count))
system.cpu.dcache.replacements                 142637                       # number of replacements (Count)
system.cpu.dcache.ReadReq.hits::cpu.data      8971318                       # number of ReadReq hits (Count)
system.cpu.dcache.ReadReq.hits::total         8971318                       # number of ReadReq hits (Count)
system.cpu.dcache.ReadReq.misses::cpu.data       289218                       # number of ReadReq misses (Count)
system.cpu.dcache.ReadReq.misses::total        289218                       # number of ReadReq misses (Count)
system.cpu.dcache.ReadReq.missLatency::cpu.data  22661654000                       # number of ReadReq miss ticks (Tick)
system.cpu.dcache.ReadReq.missLatency::total  22661654000                       # number of ReadReq miss ticks (Tick)
system.cpu.dcache.ReadReq.accesses::cpu.data      9260536                       # number of ReadReq accesses(hits+misses) (Count)
system.cpu.dcache.ReadReq.accesses::total      9260536                       # number of ReadReq accesses(hits+misses) (Count)
system.cpu.dcache.ReadReq.missRate::cpu.data     0.031231                       # miss rate for ReadReq accesses (Ratio)
system.cpu.dcache.ReadReq.missRate::total     0.031231                       # miss rate for ReadReq accesses (Ratio)
system.cpu.dcache.ReadReq.avgMissLatency::cpu.data 78354.922584                       # average ReadReq miss latency ((Tick/Count))
system.cpu.dcache.ReadReq.avgMissLatency::total 78354.922584                       # average ReadReq miss latency ((Tick/Count))
system.cpu.dcache.ReadReq.mshrHits::cpu.data       147816                       # number of ReadReq MSHR hits (Count)
system.cpu.dcache.ReadReq.mshrHits::total       147816                       # number of ReadReq MSHR hits (Count)
system.cpu.dcache.ReadReq.mshrMisses::cpu.data       141402                       # number of ReadReq MSHR misses (Count)
system.cpu.dcache.ReadReq.mshrMisses::total       141402                       # number of ReadReq MSHR misses (Count)
system.cpu.dcache.ReadReq.mshrMissLatency::cpu.data  11194311500                       # number of ReadReq MSHR miss ticks (Tick)
system.cpu.dcache.ReadReq.mshrMissLatency::total  11194311500                       # number of ReadReq MSHR miss ticks (Tick)
system.cpu.dcache.ReadReq.mshrMissRate::cpu.data     0.015269                       # mshr miss rate for ReadReq accesses (Ratio)
system.cpu.dcache.ReadReq.mshrMissRate::total     0.015269                       # mshr miss rate for ReadReq accesses (Ratio)
system.cpu.dcache.ReadReq.avgMshrMissLatency::cpu.data 79166.571194                       # average ReadReq mshr miss latency ((Tick/Count))
system.cpu.dcache.ReadReq.avgMshrMissLatency::total 79166.571194                       # average ReadReq mshr miss latency ((Tick/Count))
system.cpu.dcache.SwapReq.hits::cpu.data          100                       # number of SwapReq hits (Count)
system.cpu.dcache.SwapReq.hits::total             100                       # number of SwapReq hits (Count)
system.cpu.dcache.SwapReq.misses::cpu.data            6                       # number of SwapReq misses (Count)
system.cpu.dcache.SwapReq.misses::total             6                       # number of SwapReq misses (Count)
system.cpu.dcache.SwapReq.missLatency::cpu.data       401000                       # number of SwapReq miss ticks (Tick)
system.cpu.dcache.SwapReq.missLatency::total       401000                       # number of SwapReq miss ticks (Tick)
system.cpu.dcache.SwapReq.accesses::cpu.data          106                       # number of SwapReq accesses(hits+misses) (Count)
system.cpu.dcache.SwapReq.accesses::total          106                       # number of SwapReq accesses(hits+misses) (Count)
system.cpu.dcache.SwapReq.missRate::cpu.data     0.056604                       # miss rate for SwapReq accesses (Ratio)
system.cpu.dcache.SwapReq.missRate::total     0.056604                       # miss rate for SwapReq accesses (Ratio)
system.cpu.dcache.SwapReq.avgMissLatency::cpu.data 66833.333333                       # average SwapReq miss latency ((Tick/Count))
system.cpu.dcache.SwapReq.avgMissLatency::total 66833.333333                       # average SwapReq miss latency ((Tick/Count))
system.cpu.dcache.SwapReq.mshrMisses::cpu.data            6                       # number of SwapReq MSHR misses (Count)
system.cpu.dcache.SwapReq.mshrMisses::total            6                       # number of SwapReq MSHR misses (Count)
system.cpu.dcache.SwapReq.mshrMissLatency::cpu.data       395000                       # number of SwapReq MSHR miss ticks (Tick)
system.cpu.dcache.SwapReq.mshrMissLatency::total       395000                       # number of SwapReq MSHR miss ticks (Tick)
system.cpu.dcache.SwapReq.mshrMissRate::cpu.data     0.056604                       # mshr miss rate for SwapReq accesses (Ratio)
system.cpu.dcache.SwapReq.mshrMissRate::total     0.056604                       # mshr miss rate for SwapReq accesses (Ratio)
system.cpu.dcache.SwapReq.avgMshrMissLatency::cpu.data 65833.333333                       # average SwapReq mshr miss latency ((Tick/Count))
system.cpu.dcache.SwapReq.avgMshrMissLatency::total 65833.333333                       # average SwapReq mshr miss latency ((Tick/Count))
system.cpu.dcache.WriteLineReq.misses::cpu.data          131                       # number of WriteLineReq misses (Count)
system.cpu.dcache.WriteLineReq.misses::total          131                       # number of WriteLineReq misses (Count)
system.cpu.dcache.WriteLineReq.missLatency::cpu.data      4174908                       # number of WriteLineReq miss ticks (Tick)
system.cpu.dcache.WriteLineReq.missLatency::total      4174908                       # number of WriteLineReq miss ticks (Tick)
system.cpu.dcache.WriteLineReq.accesses::cpu.data          131                       # number of WriteLineReq accesses(hits+misses) (Count)
system.cpu.dcache.WriteLineReq.accesses::total          131                       # number of WriteLineReq accesses(hits+misses) (Count)
system.cpu.dcache.WriteLineReq.missRate::cpu.data            1                       # miss rate for WriteLineReq accesses (Ratio)
system.cpu.dcache.WriteLineReq.missRate::total            1                       # miss rate for WriteLineReq accesses (Ratio)
system.cpu.dcache.WriteLineReq.avgMissLatency::cpu.data 31869.526718                       # average WriteLineReq miss latency ((Tick/Count))
system.cpu.dcache.WriteLineReq.avgMissLatency::total 31869.526718                       # average WriteLineReq miss latency ((Tick/Count))
system.cpu.dcache.WriteLineReq.mshrMisses::cpu.data          131                       # number of WriteLineReq MSHR misses (Count)
system.cpu.dcache.WriteLineReq.mshrMisses::total          131                       # number of WriteLineReq MSHR misses (Count)
system.cpu.dcache.WriteLineReq.mshrMissLatency::cpu.data      4043908                       # number of WriteLineReq MSHR miss ticks (Tick)
system.cpu.dcache.WriteLineReq.mshrMissLatency::total      4043908                       # number of WriteLineReq MSHR miss ticks (Tick)
system.cpu.dcache.WriteLineReq.mshrMissRate::cpu.data            1                       # mshr miss rate for WriteLineReq accesses (Ratio)
system.cpu.dcache.WriteLineReq.mshrMissRate::total            1                       # mshr miss rate for WriteLineReq accesses (Ratio)
system.cpu.dcache.WriteLineReq.avgMshrMissLatency::cpu.data 30869.526718                       # average WriteLineReq mshr miss latency ((Tick/Count))
system.cpu.dcache.WriteLineReq.avgMshrMissLatency::total 30869.526718                       # average WriteLineReq mshr miss latency ((Tick/Count))
system.cpu.dcache.WriteReq.hits::cpu.data      1272069                       # number of WriteReq hits (Count)
system.cpu.dcache.WriteReq.hits::total        1272069                       # number of WriteReq hits (Count)
system.cpu.dcache.WriteReq.misses::cpu.data         5553                       # number of WriteReq misses (Count)
system.cpu.dcache.WriteReq.misses::total         5553                       # number of WriteReq misses (Count)
system.cpu.dcache.WriteReq.missLatency::cpu.data    333266087                       # number of WriteReq miss ticks (Tick)
system.cpu.dcache.WriteReq.missLatency::total    333266087                       # number of WriteReq miss ticks (Tick)
system.cpu.dcache.WriteReq.accesses::cpu.data      1277622                       # number of WriteReq accesses(hits+misses) (Count)
system.cpu.dcache.WriteReq.accesses::total      1277622                       # number of WriteReq accesses(hits+misses) (Count)
system.cpu.dcache.WriteReq.missRate::cpu.data     0.004346                       # miss rate for WriteReq accesses (Ratio)
system.cpu.dcache.WriteReq.missRate::total     0.004346                       # miss rate for WriteReq accesses (Ratio)
system.cpu.dcache.WriteReq.avgMissLatency::cpu.data 60015.502791                       # average WriteReq miss latency ((Tick/Count))
system.cpu.dcache.WriteReq.avgMissLatency::total 60015.502791                       # average WriteReq miss latency ((Tick/Count))
system.cpu.dcache.WriteReq.mshrHits::cpu.data         3431                       # number of WriteReq MSHR hits (Count)
system.cpu.dcache.WriteReq.mshrHits::total         3431                       # number of WriteReq MSHR hits (Count)
system.cpu.dcache.WriteReq.mshrMisses::cpu.data         2122                       # number of WriteReq MSHR misses (Count)
system.cpu.dcache.WriteReq.mshrMisses::total         2122                       # number of WriteReq MSHR misses (Count)
system.cpu.dcache.WriteReq.mshrMissLatency::cpu.data    129640297                       # number of WriteReq MSHR miss ticks (Tick)
system.cpu.dcache.WriteReq.mshrMissLatency::total    129640297                       # number of WriteReq MSHR miss ticks (Tick)
system.cpu.dcache.WriteReq.mshrMissRate::cpu.data     0.001661                       # mshr miss rate for WriteReq accesses (Ratio)
system.cpu.dcache.WriteReq.mshrMissRate::total     0.001661                       # mshr miss rate for WriteReq accesses (Ratio)
system.cpu.dcache.WriteReq.avgMshrMissLatency::cpu.data 61093.448162                       # average WriteReq mshr miss latency ((Tick/Count))
system.cpu.dcache.WriteReq.avgMshrMissLatency::total 61093.448162                       # average WriteReq mshr miss latency ((Tick/Count))
system.cpu.dcache.power_state.pwrStateResidencyTicks::UNDEFINED   9892110000                       # Cumulative time (in ticks) in various power states (Tick)
system.cpu.dcache.tags.tagsInUse          1020.211096                       # Average ticks per tags in use ((Tick/Count))
system.cpu.dcache.tags.totalRefs             10387148                       # Total number of references to valid blocks. (Count)
system.cpu.dcache.tags.sampledRefs             143661                       # Sample count of references to valid blocks. (Count)
system.cpu.dcache.tags.avgRefs              72.303186                       # Average number of references to valid blocks. ((Count/Count))
system.cpu.dcache.tags.warmupTick              253500                       # The tick when the warmup percentage was hit. (Tick)
system.cpu.dcache.tags.occupancies::cpu.data  1020.211096                       # Average occupied blocks per tick, per requestor ((Count/Tick))
system.cpu.dcache.tags.avgOccs::cpu.data     0.996300                       # Average percentage of cache occupancy ((Ratio/Tick))
system.cpu.dcache.tags.avgOccs::total        0.996300                       # Average percentage of cache occupancy ((Ratio/Tick))
system.cpu.dcache.tags.occupanciesTaskId::1024         1024                       # Occupied blocks per task id (Count)
system.cpu.dcache.tags.ageTaskId_1024::0           97                       # Occupied blocks per task id, per block age (Count)
system.cpu.dcache.tags.ageTaskId_1024::1          853                       # Occupied blocks per task id, per block age (Count)
system.cpu.dcache.tags.ageTaskId_1024::2           55                       # Occupied blocks per task id, per block age (Count)
system.cpu.dcache.tags.ageTaskId_1024::3           19                       # Occupied blocks per task id, per block age (Count)
system.cpu.dcache.tags.ratioOccsTaskId::1024            1                       # Ratio of occupied blocks and all blocks, per task id (Ratio)
system.cpu.dcache.tags.tagAccesses           42297241                       # Number of tag accesses (Count)
system.cpu.dcache.tags.dataAccesses          42297241                       # Number of data accesses (Count)
system.cpu.dcache.tags.power_state.pwrStateResidencyTicks::UNDEFINED   9892110000                       # Cumulative time (in ticks) in various power states (Tick)
system.cpu.decode.idleCycles                  2539160                       # Number of cycles decode is idle (Cycle)
system.cpu.decode.blockedCycles               9747109                       # Number of cycles decode is blocked (Cycle)
system.cpu.decode.runCycles                   6857221                       # Number of cycles decode is running (Cycle)
system.cpu.decode.unblockCycles                479634                       # Number of cycles decode is unblocking (Cycle)
system.cpu.decode.squashCycles                  17770                       # Number of cycles decode is squashing (Cycle)
system.cpu.decode.branchResolved               306344                       # Number of times decode resolved a branch (Count)
system.cpu.decode.branchMispred                   832                       # Number of times decode detected a branch misprediction (Count)
system.cpu.decode.decodedInsts               53402079                       # Number of instructions handled by decode (Count)
system.cpu.decode.squashedInsts                  2813                       # Number of squashed instructions handled by decode (Count)
system.cpu.fetch.icacheStallCycles            3058983                       # Number of cycles fetch is stalled on an Icache miss (Cycle)
system.cpu.fetch.insts                       45066734                       # Number of instructions fetch has processed (Count)
system.cpu.fetch.branches                     2615498                       # Number of branches that fetch encountered (Count)
system.cpu.fetch.predictedBranches             348305                       # Number of branches that fetch has predicted taken (Count)
system.cpu.fetch.cycles                      16557566                       # Number of cycles fetch has run and was not squashing or blocked (Cycle)
system.cpu.fetch.squashCycles                   37160                       # Number of cycles fetch has spent squashing (Cycle)
system.cpu.fetch.miscStallCycles                  764                       # Number of cycles fetch has spent waiting on interrupts, or bad addresses, or out of MSHRs (Cycle)
system.cpu.fetch.pendingTrapStallCycles          4962                       # Number of stall cycles due to pending traps (Cycle)
system.cpu.fetch.icacheWaitRetryStallCycles           39                       # Number of stall cycles due to full MSHR (Cycle)
system.cpu.fetch.cacheLines                   3008795                       # Number of cache lines fetched (Count)
system.cpu.fetch.icacheSquashes                  4667                       # Number of outstanding Icache misses that were squashed (Count)
system.cpu.fetch.nisnDist::samples           19640894                       # Number of instructions fetched each cycle (Total) (Count)
system.cpu.fetch.nisnDist::mean              2.731054                       # Number of instructions fetched each cycle (Total) (Count)
system.cpu.fetch.nisnDist::stdev             3.596316                       # Number of instructions fetched each cycle (Total) (Count)
system.cpu.fetch.nisnDist::underflows               0      0.00%      0.00% # Number of instructions fetched each cycle (Total) (Count)
system.cpu.fetch.nisnDist::0                 12019473     61.20%     61.20% # Number of instructions fetched each cycle (Total) (Count)
system.cpu.fetch.nisnDist::1                   104609      0.53%     61.73% # Number of instructions fetched each cycle (Total) (Count)
system.cpu.fetch.nisnDist::2                   246872      1.26%     62.99% # Number of instructions fetched each cycle (Total) (Count)
system.cpu.fetch.nisnDist::3                    68937      0.35%     63.34% # Number of instructions fetched each cycle (Total) (Count)
system.cpu.fetch.nisnDist::4                    53101      0.27%     63.61% # Number of instructions fetched each cycle (Total) (Count)
system.cpu.fetch.nisnDist::5                  1470567      7.49%     71.09% # Number of instructions fetched each cycle (Total) (Count)
system.cpu.fetch.nisnDist::6                    37642      0.19%     71.29% # Number of instructions fetched each cycle (Total) (Count)
system.cpu.fetch.nisnDist::7                    73460      0.37%     71.66% # Number of instructions fetched each cycle (Total) (Count)
system.cpu.fetch.nisnDist::8                  5566233     28.34%    100.00% # Number of instructions fetched each cycle (Total) (Count)
system.cpu.fetch.nisnDist::overflows                0      0.00%    100.00% # Number of instructions fetched each cycle (Total) (Count)
system.cpu.fetch.nisnDist::min_value                0                       # Number of instructions fetched each cycle (Total) (Count)
system.cpu.fetch.nisnDist::max_value                8                       # Number of instructions fetched each cycle (Total) (Count)
system.cpu.fetch.nisnDist::total             19640894                       # Number of instructions fetched each cycle (Total) (Count)
system.cpu.fetch.branchRate                  0.132201                       # Number of branch fetches per cycle (Ratio)
system.cpu.fetch.rate                        2.277913                       # Number of inst fetches per cycle ((Count/Cycle))
system.cpu.icache.demandHits::cpu.inst        3006129                       # number of demand (read+write) hits (Count)
system.cpu.icache.demandHits::total           3006129                       # number of demand (read+write) hits (Count)
system.cpu.icache.overallHits::cpu.inst       3006129                       # number of overall hits (Count)
system.cpu.icache.overallHits::total          3006129                       # number of overall hits (Count)
system.cpu.icache.demandMisses::cpu.inst         2666                       # number of demand (read+write) misses (Count)
system.cpu.icache.demandMisses::total            2666                       # number of demand (read+write) misses (Count)
system.cpu.icache.overallMisses::cpu.inst         2666                       # number of overall misses (Count)
system.cpu.icache.overallMisses::total           2666                       # number of overall misses (Count)
system.cpu.icache.demandMissLatency::cpu.inst    178365498                       # number of demand (read+write) miss ticks (Tick)
system.cpu.icache.demandMissLatency::total    178365498                       # number of demand (read+write) miss ticks (Tick)
system.cpu.icache.overallMissLatency::cpu.inst    178365498                       # number of overall miss ticks (Tick)
system.cpu.icache.overallMissLatency::total    178365498                       # number of overall miss ticks (Tick)
system.cpu.icache.demandAccesses::cpu.inst      3008795                       # number of demand (read+write) accesses (Count)
system.cpu.icache.demandAccesses::total       3008795                       # number of demand (read+write) accesses (Count)
system.cpu.icache.overallAccesses::cpu.inst      3008795                       # number of overall (read+write) accesses (Count)
system.cpu.icache.overallAccesses::total      3008795                       # number of overall (read+write) accesses (Count)
system.cpu.icache.demandMissRate::cpu.inst     0.000886                       # miss rate for demand accesses (Ratio)
system.cpu.icache.demandMissRate::total      0.000886                       # miss rate for demand accesses (Ratio)
system.cpu.icache.overallMissRate::cpu.inst     0.000886                       # miss rate for overall accesses (Ratio)
system.cpu.icache.overallMissRate::total     0.000886                       # miss rate for overall accesses (Ratio)
system.cpu.icache.demandAvgMissLatency::cpu.inst 66903.787697                       # average overall miss latency in ticks ((Tick/Count))
system.cpu.icache.demandAvgMissLatency::total 66903.787697                       # average overall miss latency in ticks ((Tick/Count))
system.cpu.icache.overallAvgMissLatency::cpu.inst 66903.787697                       # average overall miss latency ((Tick/Count))
system.cpu.icache.overallAvgMissLatency::total 66903.787697                       # average overall miss latency ((Tick/Count))
system.cpu.icache.blockedCycles::no_mshrs          601                       # number of cycles access was blocked (Cycle)
system.cpu.icache.blockedCycles::no_targets            0                       # number of cycles access was blocked (Cycle)
system.cpu.icache.blockedCauses::no_mshrs           13                       # number of times access was blocked (Count)
system.cpu.icache.blockedCauses::no_targets            0                       # number of times access was blocked (Count)
system.cpu.icache.avgBlocked::no_mshrs      46.230769                       # average number of cycles each access was blocked ((Cycle/Count))
system.cpu.icache.avgBlocked::no_targets          nan                       # average number of cycles each access was blocked ((Cycle/Count))
system.cpu.icache.writebacks::writebacks         1839                       # number of writebacks (Count)
system.cpu.icache.writebacks::total              1839                       # number of writebacks (Count)
system.cpu.icache.demandMshrHits::cpu.inst          570                       # number of demand (read+write) MSHR hits (Count)
system.cpu.icache.demandMshrHits::total           570                       # number of demand (read+write) MSHR hits (Count)
system.cpu.icache.overallMshrHits::cpu.inst          570                       # number of overall MSHR hits (Count)
system.cpu.icache.overallMshrHits::total          570                       # number of overall MSHR hits (Count)
system.cpu.icache.demandMshrMisses::cpu.inst         2096                       # number of demand (read+write) MSHR misses (Count)
system.cpu.icache.demandMshrMisses::total         2096                       # number of demand (read+write) MSHR misses (Count)
system.cpu.icache.overallMshrMisses::cpu.inst         2096                       # number of overall MSHR misses (Count)
system.cpu.icache.overallMshrMisses::total         2096                       # number of overall MSHR misses (Count)
system.cpu.icache.demandMshrMissLatency::cpu.inst    141494999                       # number of demand (read+write) MSHR miss ticks (Tick)
system.cpu.icache.demandMshrMissLatency::total    141494999                       # number of demand (read+write) MSHR miss ticks (Tick)
system.cpu.icache.overallMshrMissLatency::cpu.inst    141494999                       # number of overall MSHR miss ticks (Tick)
system.cpu.icache.overallMshrMissLatency::total    141494999                       # number of overall MSHR miss ticks (Tick)
system.cpu.icache.demandMshrMissRate::cpu.inst     0.000697                       # mshr miss ratio for demand accesses (Ratio)
system.cpu.icache.demandMshrMissRate::total     0.000697                       # mshr miss ratio for demand accesses (Ratio)
system.cpu.icache.overallMshrMissRate::cpu.inst     0.000697                       # mshr miss ratio for overall accesses (Ratio)
system.cpu.icache.overallMshrMissRate::total     0.000697                       # mshr miss ratio for overall accesses (Ratio)
system.cpu.icache.demandAvgMshrMissLatency::cpu.inst 67507.156011                       # average overall mshr miss latency ((Tick/Count))
system.cpu.icache.demandAvgMshrMissLatency::total 67507.156011                       # average overall mshr miss latency ((Tick/Count))
system.cpu.icache.overallAvgMshrMissLatency::cpu.inst 67507.156011                       # average overall mshr miss latency ((Tick/Count))
system.cpu.icache.overallAvgMshrMissLatency::total 67507.156011                       # average overall mshr miss latency ((Tick/Count))
system.cpu.icache.replacements                   1839                       # number of replacements (Count)
system.cpu.icache.ReadReq.hits::cpu.inst      3006129                       # number of ReadReq hits (Count)
system.cpu.icache.ReadReq.hits::total         3006129                       # number of ReadReq hits (Count)
system.cpu.icache.ReadReq.misses::cpu.inst         2666                       # number of ReadReq misses (Count)
system.cpu.icache.ReadReq.misses::total          2666                       # number of ReadReq misses (Count)
system.cpu.icache.ReadReq.missLatency::cpu.inst    178365498                       # number of ReadReq miss ticks (Tick)
system.cpu.icache.ReadReq.missLatency::total    178365498                       # number of ReadReq miss ticks (Tick)
system.cpu.icache.ReadReq.accesses::cpu.inst      3008795                       # number of ReadReq accesses(hits+misses) (Count)
system.cpu.icache.ReadReq.accesses::total      3008795                       # number of ReadReq accesses(hits+misses) (Count)
system.cpu.icache.ReadReq.missRate::cpu.inst     0.000886                       # miss rate for ReadReq accesses (Ratio)
system.cpu.icache.ReadReq.missRate::total     0.000886                       # miss rate for ReadReq accesses (Ratio)
system.cpu.icache.ReadReq.avgMissLatency::cpu.inst 66903.787697                       # average ReadReq miss latency ((Tick/Count))
system.cpu.icache.ReadReq.avgMissLatency::total 66903.787697                       # average ReadReq miss latency ((Tick/Count))
system.cpu.icache.ReadReq.mshrHits::cpu.inst          570                       # number of ReadReq MSHR hits (Count)
system.cpu.icache.ReadReq.mshrHits::total          570                       # number of ReadReq MSHR hits (Count)
system.cpu.icache.ReadReq.mshrMisses::cpu.inst         2096                       # number of ReadReq MSHR misses (Count)
system.cpu.icache.ReadReq.mshrMisses::total         2096                       # number of ReadReq MSHR misses (Count)
system.cpu.icache.ReadReq.mshrMissLatency::cpu.inst    141494999                       # number of ReadReq MSHR miss ticks (Tick)
system.cpu.icache.ReadReq.mshrMissLatency::total    141494999                       # number of ReadReq MSHR miss ticks (Tick)
system.cpu.icache.ReadReq.mshrMissRate::cpu.inst     0.000697                       # mshr miss rate for ReadReq accesses (Ratio)
system.cpu.icache.ReadReq.mshrMissRate::total     0.000697                       # mshr miss rate for ReadReq accesses (Ratio)
system.cpu.icache.ReadReq.avgMshrMissLatency::cpu.inst 67507.156011                       # average ReadReq mshr miss latency ((Tick/Count))
system.cpu.icache.ReadReq.avgMshrMissLatency::total 67507.156011                       # average ReadReq mshr miss latency ((Tick/Count))
system.cpu.icache.power_state.pwrStateResidencyTicks::UNDEFINED   9892110000                       # Cumulative time (in ticks) in various power states (Tick)
system.cpu.icache.tags.tagsInUse           255.601089                       # Average ticks per tags in use ((Tick/Count))
system.cpu.icache.tags.totalRefs              3008224                       # Total number of references to valid blocks. (Count)
system.cpu.icache.tags.sampledRefs               2095                       # Sample count of references to valid blocks. (Count)
system.cpu.icache.tags.avgRefs            1435.906444                       # Average number of references to valid blocks. ((Count/Count))
system.cpu.icache.tags.warmupTick               87500                       # The tick when the warmup percentage was hit. (Tick)
system.cpu.icache.tags.occupancies::cpu.inst   255.601089                       # Average occupied blocks per tick, per requestor ((Count/Tick))
system.cpu.icache.tags.avgOccs::cpu.inst     0.998442                       # Average percentage of cache occupancy ((Ratio/Tick))
system.cpu.icache.tags.avgOccs::total        0.998442                       # Average percentage of cache occupancy ((Ratio/Tick))
system.cpu.icache.tags.occupanciesTaskId::1024          256                       # Occupied blocks per task id (Count)
system.cpu.icache.tags.ageTaskId_1024::0           79                       # Occupied blocks per task id, per block age (Count)
system.cpu.icache.tags.ageTaskId_1024::1           99                       # Occupied blocks per task id, per block age (Count)
system.cpu.icache.tags.ageTaskId_1024::3           78                       # Occupied blocks per task id, per block age (Count)
system.cpu.icache.tags.ratioOccsTaskId::1024            1                       # Ratio of occupied blocks and all blocks, per task id (Ratio)
system.cpu.icache.tags.tagAccesses           12037275                       # Number of tag accesses (Count)
system.cpu.icache.tags.dataAccesses          12037275                       # Number of data accesses (Count)
system.cpu.icache.tags.power_state.pwrStateResidencyTicks::UNDEFINED   9892110000                       # Cumulative time (in ticks) in various power states (Tick)
system.cpu.iew.idleCycles                           0                       # Number of cycles IEW is idle (Cycle)
system.cpu.iew.squashCycles                     17770                       # Number of cycles IEW is squashing (Cycle)
system.cpu.iew.blockCycles                    4233746                       # Number of cycles IEW is blocking (Cycle)
system.cpu.iew.unblockCycles                   169791                       # Number of cycles IEW is unblocking (Cycle)
system.cpu.iew.dispatchedInsts               53229153                       # Number of instructions dispatched to IQ (Count)
system.cpu.iew.dispSquashedInsts                 9017                       # Number of squashed instructions skipped by dispatch (Count)
system.cpu.iew.dispLoadInsts                  9644862                       # Number of dispatched load instructions (Count)
system.cpu.iew.dispStoreInsts                 1315304                       # Number of dispatched store instructions (Count)
system.cpu.iew.dispNonSpecInsts                   402                       # Number of dispatched non-speculative instructions (Count)
system.cpu.iew.iqFullEvents                     63380                       # Number of times the IQ has become full, causing a stall (Count)
system.cpu.iew.lsqFullEvents                    96527                       # Number of times the LSQ has become full, causing a stall (Count)
system.cpu.iew.memOrderViolationEvents            158                       # Number of memory order violations (Count)
system.cpu.iew.predictedTakenIncorrect           7733                       # Number of branches that were predicted taken incorrectly (Count)
system.cpu.iew.predictedNotTakenIncorrect        11674                       # Number of branches that were predicted not taken incorrectly (Count)
system.cpu.iew.branchMispredicts                19407                       # Number of branch mispredicts detected at execute (Count)
system.cpu.iew.instsToCommit                 52941415                       # Cumulative count of insts sent to commit (Count)
system.cpu.iew.writebackCount                52930583                       # Cumulative count of insts written-back (Count)
system.cpu.iew.producerInst                  45848232                       # Number of instructions producing a value (Count)
system.cpu.iew.consumerInst                  69220671                       # Number of instructions consuming a value (Count)
system.cpu.iew.wbRate                        2.675394                       # Insts written-back per cycle ((Count/Cycle))
system.cpu.iew.wbFanout                      0.662349                       # Average fanout of values written-back ((Count/Count))
system.cpu.lsq0.forwLoads                      350849                       # Number of loads that had data forwarded from stores (Count)
system.cpu.lsq0.squashedLoads                  117023                       # Number of loads squashed (Count)
system.cpu.lsq0.ignoredResponses                   53                       # Number of memory responses ignored because the instruction is squashed (Count)
system.cpu.lsq0.memOrderViolation                 158                       # Number of memory ordering violations (Count)
system.cpu.lsq0.squashedStores                  37459                       # Number of stores squashed (Count)
system.cpu.lsq0.rescheduledLoads                 9311                       # Number of loads that were rescheduled (Count)
system.cpu.lsq0.blockedByCache                   2069                       # Number of times an access to memory failed due to the cache being blocked (Count)
system.cpu.lsq0.loadToUse::samples            9527839                       # Distribution of cycle latency between the first time a load is issued and its completion (Unspecified)
system.cpu.lsq0.loadToUse::mean              8.091904                       # Distribution of cycle latency between the first time a load is issued and its completion (Unspecified)
system.cpu.lsq0.loadToUse::stdev            29.474471                       # Distribution of cycle latency between the first time a load is issued and its completion (Unspecified)
system.cpu.lsq0.loadToUse::0-9                9246768     97.05%     97.05% # Distribution of cycle latency between the first time a load is issued and its completion (Unspecified)
system.cpu.lsq0.loadToUse::10-19                 2867      0.03%     97.08% # Distribution of cycle latency between the first time a load is issued and its completion (Unspecified)
system.cpu.lsq0.loadToUse::20-29                 7097      0.07%     97.15% # Distribution of cycle latency between the first time a load is issued and its completion (Unspecified)
system.cpu.lsq0.loadToUse::30-39                 1150      0.01%     97.17% # Distribution of cycle latency between the first time a load is issued and its completion (Unspecified)
system.cpu.lsq0.loadToUse::40-49                  894      0.01%     97.18% # Distribution of cycle latency between the first time a load is issued and its completion (Unspecified)
[...]
system.mem_ctrls.dram.perBankWrBursts::10         1089                       # Per bank write bursts (Count)
system.mem_ctrls.dram.perBankWrBursts::11         2554                       # Per bank write bursts (Count)
system.mem_ctrls.dram.perBankWrBursts::12          624                       # Per bank write bursts (Count)
system.mem_ctrls.dram.perBankWrBursts::13         2178                       # Per bank write bursts (Count)
system.mem_ctrls.dram.perBankWrBursts::14         2044                       # Per bank write bursts (Count)
system.mem_ctrls.dram.perBankWrBursts::15         1691                       # Per bank write bursts (Count)
system.mem_ctrls.dram.totQLat              1360770000                       # Total ticks spent queuing (Tick)
system.mem_ctrls.dram.totBusLat             702385000                       # Total ticks spent in databus transfers (Tick)
system.mem_ctrls.dram.totMemAccLat         3994713750                       # Total ticks spent from burst creation until serviced by the DRAM (Tick)
system.mem_ctrls.dram.avgQLat                 9686.78                       # Average queueing delay per DRAM burst ((Tick/Count))
system.mem_ctrls.dram.avgBusLat               5000.00                       # Average bus latency per DRAM burst ((Tick/Count))
system.mem_ctrls.dram.avgMemAccLat           28436.78                       # Average memory access latency per DRAM burst ((Tick/Count))
system.mem_ctrls.dram.readRowHits              126478                       # Number of row buffer hits during reads (Count)
system.mem_ctrls.dram.writeRowHits              24747                       # Number of row buffer hits during writes (Count)
system.mem_ctrls.dram.readRowHitRate            90.03                       # Row buffer hit rate for reads (Ratio)
system.mem_ctrls.dram.writeRowHitRate           88.52                       # Row buffer hit rate for writes (Ratio)
system.mem_ctrls.dram.bytesPerActivate::samples        17199                       # Bytes accessed per row activation (Byte)
system.mem_ctrls.dram.bytesPerActivate::mean   626.670853                       # Bytes accessed per row activation (Byte)
system.mem_ctrls.dram.bytesPerActivate::gmean   412.239364                       # Bytes accessed per row activation (Byte)
system.mem_ctrls.dram.bytesPerActivate::stdev   412.222695                       # Bytes accessed per row activation (Byte)
system.mem_ctrls.dram.bytesPerActivate::0-127         2944     17.12%     17.12% # Bytes accessed per row activation (Byte)
system.mem_ctrls.dram.bytesPerActivate::128-255         2399     13.95%     31.07% # Bytes accessed per row activation (Byte)
system.mem_ctrls.dram.bytesPerActivate::256-383          939      5.46%     36.53% # Bytes accessed per row activation (Byte)
system.mem_ctrls.dram.bytesPerActivate::384-511          685      3.98%     40.51% # Bytes accessed per row activation (Byte)
system.mem_ctrls.dram.bytesPerActivate::512-639          738      4.29%     44.80% # Bytes accessed per row activation (Byte)
system.mem_ctrls.dram.bytesPerActivate::640-767          664      3.86%     48.66% # Bytes accessed per row activation (Byte)
system.mem_ctrls.dram.bytesPerActivate::768-895          554      3.22%     51.88% # Bytes accessed per row activation (Byte)
system.mem_ctrls.dram.bytesPerActivate::896-1023          487      2.83%     54.71% # Bytes accessed per row activation (Byte)
system.mem_ctrls.dram.bytesPerActivate::1024-1151         7789     45.29%    100.00% # Bytes accessed per row activation (Byte)
system.mem_ctrls.dram.bytesPerActivate::total        17199                       # Bytes accessed per row activation (Byte)
system.mem_ctrls.dram.bytesRead               8990528                       # Total bytes read (Byte)
system.mem_ctrls.dram.bytesWritten            1789248                       # Total bytes written (Byte)
system.mem_ctrls.dram.avgRdBW              908.858474                       # Average DRAM read bandwidth in MiBytes/s ((Byte/Second))
system.mem_ctrls.dram.avgWrBW              180.876274                       # Average DRAM write bandwidth in MiBytes/s ((Byte/Second))
system.mem_ctrls.dram.peakBW                 12800.00                       # Theoretical peak bandwidth in MiByte/s ((Byte/Second))
system.mem_ctrls.dram.busUtil                    8.51                       # Data bus utilization in percentage (Ratio)
system.mem_ctrls.dram.busUtilRead                7.10                       # Data bus utilization in percentage for reads (Ratio)
system.mem_ctrls.dram.busUtilWrite               1.41                       # Data bus utilization in percentage for writes (Ratio)
system.mem_ctrls.dram.pageHitRate               89.78                       # Row buffer hit rate, read and write combined (Ratio)
system.mem_ctrls.dram.power_state.pwrStateResidencyTicks::UNDEFINED   9892110000                       # Cumulative time (in ticks) in various power states (Tick)
system.mem_ctrls.dram.rank0.actEnergy        60904200                       # Energy for activate commands per rank (pJ) (Joule)
system.mem_ctrls.dram.rank0.preEnergy        32348580                       # Energy for precharge commands per rank (pJ) (Joule)
system.mem_ctrls.dram.rank0.readEnergy      489482700                       # Energy for read commands per rank (pJ) (Joule)
system.mem_ctrls.dram.rank0.writeEnergy      71373060                       # Energy for write commands per rank (pJ) (Joule)
system.mem_ctrls.dram.rank0.refreshEnergy 780592800.000000                       # Energy for refresh commands per rank (pJ) (Joule)
system.mem_ctrls.dram.rank0.actBackEnergy   3354887190                       # Energy for active background per rank (pJ) (Joule)
system.mem_ctrls.dram.rank0.preBackEnergy    973402080                       # Energy for precharge background per rank (pJ) (Joule)
system.mem_ctrls.dram.rank0.actPowerDownEnergy            0                       # Energy for active power-down per rank (pJ) (Joule)
system.mem_ctrls.dram.rank0.prePowerDownEnergy            0                       # Energy for precharge power-down per rank (pJ) (Joule)
system.mem_ctrls.dram.rank0.selfRefreshEnergy            0                       # Energy for self refresh per rank (pJ) (Joule)
system.mem_ctrls.dram.rank0.totalEnergy    5762990610                       # Total energy per rank (pJ) (Joule)
system.mem_ctrls.dram.rank0.averagePower   582.584566                       # Core power per rank (mW) (Watt)
system.mem_ctrls.dram.rank0.totalIdleTime            0                       # Total Idle time Per DRAM Rank (Tick)
system.mem_ctrls.dram.rank0.pwrStateTime::IDLE   2487702000                       # Time in different power states (Tick)
system.mem_ctrls.dram.rank0.pwrStateTime::REF    330200000                       # Time in different power states (Tick)
system.mem_ctrls.dram.rank0.pwrStateTime::SREF            0                       # Time in different power states (Tick)
system.mem_ctrls.dram.rank0.pwrStateTime::PRE_PDN            0                       # Time in different power states (Tick)
system.mem_ctrls.dram.rank0.pwrStateTime::ACT   7074208000                       # Time in different power states (Tick)
system.mem_ctrls.dram.rank0.pwrStateTime::ACT_PDN            0                       # Time in different power states (Tick)
system.mem_ctrls.dram.rank1.actEnergy        61968060                       # Energy for activate commands per rank (pJ) (Joule)
system.mem_ctrls.dram.rank1.preEnergy        32921625                       # Energy for precharge commands per rank (pJ) (Joule)
system.mem_ctrls.dram.rank1.readEnergy      513523080                       # Energy for read commands per rank (pJ) (Joule)
system.mem_ctrls.dram.rank1.writeEnergy      74562480                       # Energy for write commands per rank (pJ) (Joule)
system.mem_ctrls.dram.rank1.refreshEnergy 780592800.000000                       # Energy for refresh commands per rank (pJ) (Joule)
system.mem_ctrls.dram.rank1.actBackEnergy   3516467370                       # Energy for active background per rank (pJ) (Joule)
system.mem_ctrls.dram.rank1.preBackEnergy    837334560                       # Energy for precharge background per rank (pJ) (Joule)
system.mem_ctrls.dram.rank1.actPowerDownEnergy            0                       # Energy for active power-down per rank (pJ) (Joule)
system.mem_ctrls.dram.rank1.prePowerDownEnergy            0                       # Energy for precharge power-down per rank (pJ) (Joule)
system.mem_ctrls.dram.rank1.selfRefreshEnergy            0                       # Energy for self refresh per rank (pJ) (Joule)
system.mem_ctrls.dram.rank1.totalEnergy    5817369975                       # Total energy per rank (pJ) (Joule)
system.mem_ctrls.dram.rank1.averagePower   588.081812                       # Core power per rank (mW) (Watt)
system.mem_ctrls.dram.rank1.totalIdleTime            0                       # Total Idle time Per DRAM Rank (Tick)
system.mem_ctrls.dram.rank1.pwrStateTime::IDLE   2131925750                       # Time in different power states (Tick)
system.mem_ctrls.dram.rank1.pwrStateTime::REF    330200000                       # Time in different power states (Tick)
system.mem_ctrls.dram.rank1.pwrStateTime::SREF            0                       # Time in different power states (Tick)
system.mem_ctrls.dram.rank1.pwrStateTime::PRE_PDN            0                       # Time in different power states (Tick)
system.mem_ctrls.dram.rank1.pwrStateTime::ACT   7429984250                       # Time in different power states (Tick)
system.mem_ctrls.dram.rank1.pwrStateTime::ACT_PDN            0                       # Time in different power states (Tick)
system.mem_ctrls.power_state.pwrStateResidencyTicks::UNDEFINED   9892110000                       # Cumulative time (in ticks) in various power states (Tick)
system.membus.transDist::ReadResp              139020                       # Transaction distribution (Count)
system.membus.transDist::WritebackDirty         27974                       # Transaction distribution (Count)
system.membus.transDist::CleanEvict            108470                       # Transaction distribution (Count)
system.membus.transDist::ReadExReq               1479                       # Transaction distribution (Count)
system.membus.transDist::ReadExResp              1479                       # Transaction distribution (Count)
system.membus.transDist::ReadSharedReq         139020                       # Transaction distribution (Count)
system.membus.transDist::InvalidateReq            141                       # Transaction distribution (Count)
system.membus.pktCount_system.l2.mem_side_port::system.mem_ctrls.port       417583                       # Packet count per connected requestor and responder (Count)
system.membus.pktCount::total                  417583                       # Packet count per connected requestor and responder (Count)
system.membus.pktSize_system.l2.mem_side_port::system.mem_ctrls.port     10782272                       # Cumulative packet size per connected requestor and responder (Byte)
system.membus.pktSize::total                 10782272                       # Cumulative packet size per connected requestor and responder (Byte)
system.membus.snoops                                0                       # Total snoops (Count)
system.membus.snoopTraffic                          0                       # Total snoop traffic (Byte)
system.membus.snoopFanout::samples             140640                       # Request fanout histogram (Count)
system.membus.snoopFanout::mean                     0                       # Request fanout histogram (Count)
system.membus.snoopFanout::stdev                    0                       # Request fanout histogram (Count)
system.membus.snoopFanout::underflows               0      0.00%      0.00% # Request fanout histogram (Count)
system.membus.snoopFanout::0                   140640    100.00%    100.00% # Request fanout histogram (Count)
system.membus.snoopFanout::1                        0      0.00%    100.00% # Request fanout histogram (Count)
system.membus.snoopFanout::overflows                0      0.00%    100.00% # Request fanout histogram (Count)
system.membus.snoopFanout::min_value                0                       # Request fanout histogram (Count)
system.membus.snoopFanout::max_value                0                       # Request fanout histogram (Count)
system.membus.snoopFanout::total               140640                       # Request fanout histogram (Count)
system.membus.power_state.pwrStateResidencyTicks::UNDEFINED   9892110000                       # Cumulative time (in ticks) in various power states (Tick)
system.membus.reqLayer0.occupancy           394575000                       # Layer occupancy (ticks) (Tick)
system.membus.reqLayer0.utilization               0.0                       # Layer utilization (Ratio)
system.membus.respLayer1.occupancy          725126750                       # Layer occupancy (ticks) (Tick)
system.membus.respLayer1.utilization              0.1                       # Layer utilization (Ratio)
system.membus.snoop_filter.totRequests         277084                       # Total number of requests made to the snoop filter. (Count)
system.membus.snoop_filter.hitSingleRequests       136444                       # Number of requests hitting in the snoop filter with a single holder of the requested data. (Count)
system.membus.snoop_filter.hitMultiRequests            0                       # Number of requests hitting in the snoop filter with multiple (>1) holders of the requested data. (Count)
system.membus.snoop_filter.totSnoops                0                       # Total number of snoops made to the snoop filter. (Count)
system.membus.snoop_filter.hitSingleSnoops            0                       # Number of snoops hitting in the snoop filter with a single holder of the requested data. (Count)
system.membus.snoop_filter.hitMultiSnoops            0                       # Number of snoops hitting in the snoop filter with multiple (>1) holders of the requested data. (Count)
system.tol2bus.transDist::ReadResp             143497                       # Transaction distribution (Count)
system.tol2bus.transDist::WritebackDirty        57819                       # Transaction distribution (Count)
system.tol2bus.transDist::WritebackClean         1839                       # Transaction distribution (Count)
system.tol2bus.transDist::CleanEvict           221903                       # Transaction distribution (Count)
system.tol2bus.transDist::ReadExReq              2118                       # Transaction distribution (Count)
system.tol2bus.transDist::ReadExResp             2118                       # Transaction distribution (Count)
system.tol2bus.transDist::ReadCleanReq           2096                       # Transaction distribution (Count)
system.tol2bus.transDist::ReadSharedReq        141402                       # Transaction distribution (Count)
system.tol2bus.transDist::InvalidateReq           141                       # Transaction distribution (Count)
system.tol2bus.transDist::InvalidateResp          141                       # Transaction distribution (Count)
system.tol2bus.pktCount_system.cpu.icache.mem_side_port::system.l2.cpu_side_port         6030                       # Packet count per connected requestor and responder (Count)
system.tol2bus.pktCount_system.cpu.dcache.mem_side_port::system.l2.cpu_side_port       429959                       # Packet count per connected requestor and responder (Count)
system.tol2bus.pktCount::total                 435989                       # Packet count per connected requestor and responder (Count)
system.tol2bus.pktSize_system.cpu.icache.mem_side_port::system.l2.cpu_side_port       251776                       # Cumulative packet size per connected requestor and responder (Byte)
system.tol2bus.pktSize_system.cpu.dcache.mem_side_port::system.l2.cpu_side_port     11095360                       # Cumulative packet size per connected requestor and responder (Byte)
system.tol2bus.pktSize::total                11347136                       # Cumulative packet size per connected requestor and responder (Byte)
system.tol2bus.snoops                          137085                       # Total snoops (Count)
system.tol2bus.snoopTraffic                   1790336                       # Total snoop traffic (Byte)
system.tol2bus.snoopFanout::samples            282842                       # Request fanout histogram (Count)
system.tol2bus.snoopFanout::mean             0.003231                       # Request fanout histogram (Count)
system.tol2bus.snoopFanout::stdev            0.056754                       # Request fanout histogram (Count)
system.tol2bus.snoopFanout::underflows              0      0.00%      0.00% # Request fanout histogram (Count)
system.tol2bus.snoopFanout::0                  281928     99.68%     99.68% # Request fanout histogram (Count)
system.tol2bus.snoopFanout::1                     914      0.32%    100.00% # Request fanout histogram (Count)
system.tol2bus.snoopFanout::2                       0      0.00%    100.00% # Request fanout histogram (Count)
system.tol2bus.snoopFanout::overflows               0      0.00%    100.00% # Request fanout histogram (Count)
system.tol2bus.snoopFanout::min_value               0                       # Request fanout histogram (Count)
system.tol2bus.snoopFanout::max_value               1                       # Request fanout histogram (Count)
system.tol2bus.snoopFanout::total              282842                       # Request fanout histogram (Count)
system.tol2bus.power_state.pwrStateResidencyTicks::UNDEFINED   9892110000                       # Cumulative time (in ticks) in various power states (Tick)
system.tol2bus.reqLayer0.occupancy          176800500                       # Layer occupancy (ticks) (Tick)
system.tol2bus.reqLayer0.utilization              0.0                       # Layer utilization (Ratio)
system.tol2bus.respLayer0.occupancy           3143498                       # Layer occupancy (ticks) (Tick)
system.tol2bus.respLayer0.utilization             0.0                       # Layer utilization (Ratio)
system.tol2bus.respLayer1.occupancy         215350999                       # Layer occupancy (ticks) (Tick)
system.tol2bus.respLayer1.utilization             0.0                       # Layer utilization (Ratio)
system.tol2bus.snoop_filter.totRequests        290233                       # Total number of requests made to the snoop filter. (Count)
system.tol2bus.snoop_filter.hitSingleRequests       144476                       # Number of requests hitting in the snoop filter with a single holder of the requested data. (Count)
system.tol2bus.snoop_filter.hitMultiRequests            2                       # Number of requests hitting in the snoop filter with multiple (>1) holders of the requested data. (Count)
system.tol2bus.snoop_filter.totSnoops             912                       # Total number of snoops made to the snoop filter. (Count)
system.tol2bus.snoop_filter.hitSingleSnoops          912                       # Number of snoops hitting in the snoop filter with a single holder of the requested data. (Count)
system.tol2bus.snoop_filter.hitMultiSnoops            0                       # Number of snoops hitting in the snoop filter with multiple (>1) holders of the requested data. (Count)
system.voltage_domain.voltage                       1                       # Voltage in Volts (Volt)
system.workload.inst.arm                            0                       # number of arm instructions executed (Count)
system.workload.inst.quiesce                        0                       # number of quiesce instructions executed (Count)

---------- End Simulation Statistics   ----------
