
---------- Begin Simulation Statistics ----------
simSeconds                                   0.022681                       # Number of seconds simulated (Second)
simTicks                                  22680846000                       # Number of ticks simulated (Tick)
finalTick                                 22680846000                       # Number of ticks from beginning of simulation (restored from checkpoints and never reset) (Tick)
simFreq                                  1000000000000                       # The number of ticks per simulated second ((Tick/Second))
hostSeconds                                    377.36                       # Real time elapsed on the host (Second)
hostTickRate                                 60103371                       # The number of ticks simulated per host second (ticks/s) ((Tick/Second))
hostMemory                                     680120                       # Number of bytes of host memory used (Byte)
simInsts                                    118406495                       # Number of instructions simulated (Count)
simOps                                      144012563                       # Number of ops (including micro ops) simulated (Count)
hostInstRate                                   313772                       # Simulator instruction rate (inst/s) ((Count/Second))
hostOpRate                                     381627                       # Simulator op (including micro ops) rate (op/s) ((Count/Second))
system.clk_domain.clock                          1000                       # Clock period in ticks (Tick)
system.cpu.numCycles                         45361693                       # Number of cpu cycles simulated (Cycle)
system.cpu.numWorkItemsStarted                      0                       # Number of work items this cpu started (Count)
system.cpu.numWorkItemsCompleted                    0                       # Number of work items this cpu completed (Count)
system.cpu.instsAdded                       144673081                       # Number of instructions added to the IQ (excludes non-spec) (Count)
system.cpu.nonSpecInstsAdded                      184                       # Number of non-speculative instructions added to the IQ (Count)
system.cpu.instsIssued                      144450146                       # Number of instructions issued (Count)
system.cpu.squashedInstsIssued                   2363                       # Number of squashed instructions issued (Count)
system.cpu.squashedInstsExamined               660536                       # Number of squashed instructions iterated over during squash; mainly for profiling (Count)
system.cpu.squashedOperandsExamined            585354                       # Number of squashed operands that are examined and possibly removed from graph (Count)
system.cpu.squashedNonSpecRemoved                  65                       # Number of squashed non-spec instructions that were removed (Count)
system.cpu.numIssuedDist::samples            45230164                       # Number of insts issued each cycle (Count)
system.cpu.numIssuedDist::mean               3.193668                       # Number of insts issued each cycle (Count)
system.cpu.numIssuedDist::stdev              2.923971                       # Number of insts issued each cycle (Count)
system.cpu.numIssuedDist::underflows                0      0.00%      0.00% # Number of insts issued each cycle (Count)
system.cpu.numIssuedDist::0                  16246563     35.92%     35.92% # Number of insts issued each cycle (Count)
system.cpu.numIssuedDist::1                   1867392      4.13%     40.05% # Number of insts issued each cycle (Count)
system.cpu.numIssuedDist::2                   2037419      4.50%     44.55% # Number of insts issued each cycle (Count)
system.cpu.numIssuedDist::3                   3630632      8.03%     52.58% # Number of insts issued each cycle (Count)
system.cpu.numIssuedDist::4                   4714179     10.42%     63.00% # Number of insts issued each cycle (Count)
system.cpu.numIssuedDist::5                   4522234     10.00%     73.00% # Number of insts issued each cycle (Count)
system.cpu.numIssuedDist::6                   4243131      9.38%     82.38% # Number of insts issued each cycle (Count)
system.cpu.numIssuedDist::7                   3059564      6.76%     89.15% # Number of insts issued each cycle (Count)
system.cpu.numIssuedDist::8                   4909050     10.85%    100.00% # Number of insts issued each cycle (Count)
system.cpu.numIssuedDist::overflows                 0      0.00%    100.00% # Number of insts issued each cycle (Count)
system.cpu.numIssuedDist::min_value                 0                       # Number of insts issued each cycle (Count)
system.cpu.numIssuedDist::max_value                 8                       # Number of insts issued each cycle (Count)
system.cpu.numIssuedDist::total              45230164                       # Number of insts issued each cycle (Count)
system.cpu.statFuBusy::No_OpClass                   0      0.00%      0.00% # attempts to use FU when none available (Count)
system.cpu.statFuBusy::IntAlu                   72277     13.38%     13.38% # attempts to use FU when none available (Count)
system.cpu.statFuBusy::IntMult                     12      0.00%     13.38% # attempts to use FU when none available (Count)
system.cpu.statFuBusy::IntDiv                    1207      0.22%     13.61% # attempts to use FU when none available (Count)
system.cpu.statFuBusy::FloatAdd                     0      0.00%     13.61% # attempts to use FU when none available (Count)
system.cpu.statFuBusy::FloatCmp                     0      0.00%     13.61% # attempts to use FU when none available (Count)
system.cpu.statFuBusy::FloatCvt                     0      0.00%     13.61% # attempts to use FU when none available (Count)
system.cpu.statFuBusy::FloatMult                    0      0.00%     13.61% # attempts to use FU when none available (Count)
system.cpu.statFuBusy::FloatMultAcc                 0      0.00%     13.61% # attempts to use FU when none available (Count)
system.cpu.statFuBusy::FloatDiv                     0      0.00%     13.61% # attempts to use FU when none available (Count)
system.cpu.statFuBusy::FloatMisc                    0      0.00%     13.61% # attempts to use FU when none available (Count)
system.cpu.statFuBusy::FloatSqrt                    0      0.00%     13.61% # attempts to use FU when none available (Count)
system.cpu.statFuBusy::SimdAdd                      0      0.00%     13.61% # attempts to use FU when none available (Count)
system.cpu.statFuBusy::SimdAddAcc                   0      0.00%     13.61% # attempts to use FU when none available (Count)
system.cpu.statFuBusy::SimdAlu                     20      0.00%     13.61% # attempts to use FU when none available (Count)
system.cpu.statFuBusy::SimdCmp                     17      0.00%     13.61% # attempts to use FU when none available (Count)
system.cpu.statFuBusy::SimdCvt                      0      0.00%     13.61% # attempts to use FU when none available (Count)
system.cpu.statFuBusy::SimdMisc                     0      0.00%     13.61% # attempts to use FU when none available (Count)
system.cpu.statFuBusy::SimdMult                  5194      0.96%     14.58% # attempts to use FU when none available (Count)
system.cpu.statFuBusy::SimdMultAcc                  0      0.00%     14.58% # attempts to use FU when none available (Count)
system.cpu.statFuBusy::SimdShift                    0      0.00%     14.58% # attempts to use FU when none available (Count)
system.cpu.statFuBusy::SimdShiftAcc                 0      0.00%     14.58% # attempts to use FU when none available (Count)
system.cpu.statFuBusy::SimdDiv                      0      0.00%     14.58% # attempts to use FU when none available (Count)
system.cpu.statFuBusy::SimdSqrt                     0      0.00%     14.58% # attempts to use FU when none available (Count)
system.cpu.statFuBusy::SimdFloatAdd                 0      0.00%     14.58% # attempts to use FU when none available (Count)
system.cpu.statFuBusy::SimdFloatAlu                 0      0.00%     14.58% # attempts to use FU when none available (Count)
system.cpu.statFuBusy::SimdFloatCmp                 0      0.00%     14.58% # attempts to use FU when none available (Count)
system.cpu.statFuBusy::SimdFloatCvt                 0      0.00%     14.58% # attempts to use FU when none available (Count)
system.cpu.statFuBusy::SimdFloatDiv                 0      0.00%     14.58% # attempts to use FU when none available (Count)
system.cpu.statFuBusy::SimdFloatMisc                0      0.00%     14.58% # attempts to use FU when none available (Count)
system.cpu.statFuBusy::SimdFloatMult                0      0.00%     14.58% # attempts to use FU when none available (Count)
system.cpu.statFuBusy::SimdFloatMultAcc             0      0.00%     14.58% # attempts to use FU when none available (Count)
system.cpu.statFuBusy::SimdFloatSqrt                0      0.00%     14.58% # attempts to use FU when none available (Count)
system.cpu.statFuBusy::SimdReduceAdd                0      0.00%     14.58% # attempts to use FU when none available (Count)
system.cpu.statFuBusy::SimdReduceAlu                0      0.00%     14.58% # attempts to use FU when none available (Count)
system.cpu.statFuBusy::SimdReduceCmp                0      0.00%     14.58% # attempts to use FU when none available (Count)
system.cpu.statFuBusy::SimdFloatReduceAdd            0      0.00%     14.58% # attempts to use FU when none available (Count)
system.cpu.statFuBusy::SimdFloatReduceCmp            0      0.00%     14.58% # attempts to use FU when none available (Count)
system.cpu.statFuBusy::SimdAes                      0      0.00%     14.58% # attempts to use FU when none available (Count)
system.cpu.statFuBusy::SimdAesMix                   0      0.00%     14.58% # attempts to use FU when none available (Count)
system.cpu.statFuBusy::SimdSha1Hash                 0      0.00%     14.58% # attempts to use FU when none available (Count)
system.cpu.statFuBusy::SimdSha1Hash2                0      0.00%     14.58% # attempts to use FU when none available (Count)
system.cpu.statFuBusy::SimdSha256Hash               0      0.00%     14.58% # attempts to use FU when none available (Count)
system.cpu.statFuBusy::SimdSha256Hash2              0      0.00%     14.58% # attempts to use FU when none available (Count)
system.cpu.statFuBusy::SimdShaSigma2                0      0.00%     14.58% # attempts to use FU when none available (Count)
system.cpu.statFuBusy::SimdShaSigma3                0      0.00%     14.58% # attempts to use FU when none available (Count)
system.cpu.statFuBusy::SimdPredAlu                  0      0.00%     14.58% # attempts to use FU when none available (Count)
system.cpu.statFuBusy::MemRead                 446530     82.67%     97.25% # attempts to use FU when none available (Count)
system.cpu.statFuBusy::MemWrite                 14854      2.75%    100.00% # attempts to use FU when none available (Count)
system.cpu.statFuBusy::FloatMemRead                 0      0.00%    100.00% # attempts to use FU when none available (Count)
system.cpu.statFuBusy::FloatMemWrite                0      0.00%    100.00% # attempts to use FU when none available (Count)
system.cpu.statFuBusy::IprAccess                    0      0.00%    100.00% # attempts to use FU when none available (Count)
system.cpu.statFuBusy::InstPrefetch                 0      0.00%    100.00% # attempts to use FU when none available (Count)
system.cpu.statIssuedInstType_0::No_OpClass     10137368      7.02%      7.02% # Number of instructions issued per FU type, per thread (Count)
system.cpu.statIssuedInstType_0::IntAlu      43377404     30.03%     37.05% # Number of instructions issued per FU type, per thread (Count)
system.cpu.statIssuedInstType_0::IntMult      4025456      2.79%     39.83% # Number of instructions issued per FU type, per thread (Count)
system.cpu.statIssuedInstType_0::IntDiv          2695      0.00%     39.84% # Number of instructions issued per FU type, per thread (Count)
system.cpu.statIssuedInstType_0::FloatAdd            0      0.00%     39.84% # Number of instructions issued per FU type, per thread (Count)
system.cpu.statIssuedInstType_0::FloatCmp            0      0.00%     39.84% # Number of instructions issued per FU type, per thread (Count)
system.cpu.statIssuedInstType_0::FloatCvt            0      0.00%     39.84% # Number of instructions issued per FU type, per thread (Count)
system.cpu.statIssuedInstType_0::FloatMult            0      0.00%     39.84% # Number of instructions issued per FU type, per thread (Count)
system.cpu.statIssuedInstType_0::FloatMultAcc            0      0.00%     39.84% # Number of instructions issued per FU type, per thread (Count)
system.cpu.statIssuedInstType_0::FloatDiv            0      0.00%     39.84% # Number of instructions issued per FU type, per thread (Count)
system.cpu.statIssuedInstType_0::FloatMisc            2      0.00%     39.84% # Number of instructions issued per FU type, per thread (Count)
system.cpu.statIssuedInstType_0::FloatSqrt            0      0.00%     39.84% # Number of instructions issued per FU type, per thread (Count)
system.cpu.statIssuedInstType_0::SimdAdd     16021534     11.09%     50.93% # Number of instructions issued per FU type, per thread (Count)
system.cpu.statIssuedInstType_0::SimdAddAcc            0      0.00%     50.93% # Number of instructions issued per FU type, per thread (Count)
system.cpu.statIssuedInstType_0::SimdAlu          516      0.00%     50.93% # Number of instructions issued per FU type, per thread (Count)
system.cpu.statIssuedInstType_0::SimdCmp          125      0.00%     50.93% # Number of instructions issued per FU type, per thread (Count)
system.cpu.statIssuedInstType_0::SimdCvt            0      0.00%     50.93% # Number of instructions issued per FU type, per thread (Count)
system.cpu.statIssuedInstType_0::SimdMisc     16021034     11.09%     62.02% # Number of instructions issued per FU type, per thread (Count)
system.cpu.statIssuedInstType_0::SimdMult     16084732     11.14%     73.15% # Number of instructions issued per FU type, per thread (Count)
system.cpu.statIssuedInstType_0::SimdMultAcc      3914916      2.71%     75.86% # Number of instructions issued per FU type, per thread (Count)
system.cpu.statIssuedInstType_0::SimdShift            0      0.00%     75.86% # Number of instructions issued per FU type, per thread (Count)
system.cpu.statIssuedInstType_0::SimdShiftAcc            0      0.00%     75.86% # Number of instructions issued per FU type, per thread (Count)
system.cpu.statIssuedInstType_0::SimdDiv            0      0.00%     75.86% # Number of instructions issued per FU type, per thread (Count)
system.cpu.statIssuedInstType_0::SimdSqrt            0      0.00%     75.86% # Number of instructions issued per FU type, per thread (Count)
system.cpu.statIssuedInstType_0::SimdFloatAdd            0      0.00%     75.86% # Number of instructions issued per FU type, per thread (Count)
system.cpu.statIssuedInstType_0::SimdFloatAlu            0      0.00%     75.86% # Number of instructions issued per FU type, per thread (Count)
system.cpu.statIssuedInstType_0::SimdFloatCmp            0      0.00%     75.86% # Number of instructions issued per FU type, per thread (Count)
system.cpu.statIssuedInstType_0::SimdFloatCvt            0      0.00%     75.86% # Number of instructions issued per FU type, per thread (Count)
system.cpu.statIssuedInstType_0::SimdFloatDiv            0      0.00%     75.86% # Number of instructions issued per FU type, per thread (Count)
system.cpu.statIssuedInstType_0::SimdFloatMisc            0      0.00%     75.86% # Number of instructions issued per FU type, per thread (Count)
system.cpu.statIssuedInstType_0::SimdFloatMult            0      0.00%     75.86% # Number of instructions issued per FU type, per thread (Count)
system.cpu.statIssuedInstType_0::SimdFloatMultAcc            0      0.00%     75.86% # Number of instructions issued per FU type, per thread (Count)
system.cpu.statIssuedInstType_0::SimdFloatSqrt            0      0.00%     75.86% # Number of instructions issued per FU type, per thread (Count)
system.cpu.statIssuedInstType_0::SimdReduceAdd            0      0.00%     75.86% # Number of instructions issued per FU type, per thread (Count)
system.cpu.statIssuedInstType_0::SimdReduceAlu            0      0.00%     75.86% # Number of instructions issued per FU type, per thread (Count)
system.cpu.statIssuedInstType_0::SimdReduceCmp            0      0.00%     75.86% # Number of instructions issued per FU type, per thread (Count)
system.cpu.statIssuedInstType_0::SimdFloatReduceAdd            0      0.00%     75.86% # Number of instructions issued per FU type, per thread (Count)
system.cpu.statIssuedInstType_0::SimdFloatReduceCmp            0      0.00%     75.86% # Number of instructions issued per FU type, per thread (Count)
system.cpu.statIssuedInstType_0::SimdAes            0      0.00%     75.86% # Number of instructions issued per FU type, per thread (Count)
system.cpu.statIssuedInstType_0::SimdAesMix            0      0.00%     75.86% # Number of instructions issued per FU type, per thread (Count)
system.cpu.statIssuedInstType_0::SimdSha1Hash            0      0.00%     75.86% # Number of instructions issued per FU type, per thread (Count)
system.cpu.statIssuedInstType_0::SimdSha1Hash2            0      0.00%     75.86% # Number of instructions issued per FU type, per thread (Count)
system.cpu.statIssuedInstType_0::SimdSha256Hash            0      0.00%     75.86% # Number of instructions issued per FU type, per thread (Count)
system.cpu.statIssuedInstType_0::SimdSha256Hash2            0      0.00%     75.86% # Number of instructions issued per FU type, per thread (Count)
system.cpu.statIssuedInstType_0::SimdShaSigma2            0      0.00%     75.86% # Number of instructions issued per FU type, per thread (Count)
system.cpu.statIssuedInstType_0::SimdShaSigma3            0      0.00%     75.86% # Number of instructions issued per FU type, per thread (Count)
system.cpu.statIssuedInstType_0::SimdPredAlu            0      0.00%     75.86% # Number of instructions issued per FU type, per thread (Count)
system.cpu.statIssuedInstType_0::MemRead     30632240     21.21%     97.07% # Number of instructions issued per FU type, per thread (Count)
system.cpu.statIssuedInstType_0::MemWrite      4232124      2.93%    100.00% # Number of instructions issued per FU type, per thread (Count)
system.cpu.statIssuedInstType_0::FloatMemRead            0      0.00%    100.00% # Number of instructions issued per FU type, per thread (Count)
system.cpu.statIssuedInstType_0::FloatMemWrite            0      0.00%    100.00% # Number of instructions issued per FU type, per thread (Count)
system.cpu.statIssuedInstType_0::IprAccess            0      0.00%    100.00% # Number of instructions issued per FU type, per thread (Count)
system.cpu.statIssuedInstType_0::InstPrefetch            0      0.00%    100.00% # Number of instructions issued per FU type, per thread (Count)
system.cpu.statIssuedInstType_0::total      144450146                       # Number of instructions issued per FU type, per thread (Count)
system.cpu.issueRate                         3.184408                       # Inst issue rate ((Count/Cycle))
system.cpu.fuBusy                              540111                       # FU busy when requested (Count)
system.cpu.fuBusyRate                        0.003739                       # FU busy rate (busy events/executed inst) ((Count/Count))
system.cpu.intInstQueueReads                169471510                       # Number of integer instruction queue reads (Count)
system.cpu.intInstQueueWrites                62792766                       # Number of integer instruction queue writes (Count)
system.cpu.intInstQueueWakeupAccesses        61881828                       # Number of integer instruction queue wakeup accesses (Count)
system.cpu.fpInstQueueReads                         0                       # Number of floating instruction queue reads (Count)
system.cpu.fpInstQueueWrites                        0                       # Number of floating instruction queue writes (Count)
system.cpu.fpInstQueueWakeupAccesses                0                       # Number of floating instruction queue wakeup accesses (Count)
system.cpu.vecInstQueueReads                165201417                       # Number of vector instruction queue reads (Count)
system.cpu.vecInstQueueWrites                82541941                       # Number of vector instruction queue writes (Count)
system.cpu.vecInstQueueWakeupAccesses        82459788                       # Number of vector instruction queue wakeup accesses (Count)
system.cpu.intAluAccesses                    62252670                       # Number of integer alu accesses (Count)
system.cpu.fpAluAccesses                            0                       # Number of floating point alu accesses (Count)
system.cpu.vecAluAccesses                    72600219                       # Number of vector alu accesses (Count)
system.cpu.numInsts                         144417113                       # Number of executed instructions (Count)
system.cpu.numLoadInsts                      30619721                       # Number of load instructions executed (Count)
system.cpu.numSquashedInsts                     33030                       # Number of squashed instructions skipped in execute (Count)
system.cpu.numSwp                                   0                       # Number of swp insts executed (Count)
system.cpu.numNop                                 382                       # Number of nop insts executed (Count)
system.cpu.numRefs                           34850060                       # Number of memory reference insts executed (Count)
system.cpu.numBranches                        6603843                       # Number of branches executed (Count)
system.cpu.numStoreInsts                      4230339                       # Number of stores executed (Count)
system.cpu.numRate                           3.183680                       # Inst execution rate ((Count/Cycle))
system.cpu.timesIdled                            1403                       # Number of times that the entire CPU went into an idle state and unscheduled itself (Count)
system.cpu.idleCycles                          131529                       # Total number of cycles that the CPU has spent unscheduled due to idling (Cycle)
system.cpu.committedInsts                   118406495                       # Number of Instructions Simulated (Count)
system.cpu.committedOps                     144012563                       # Number of Ops (including micro ops) Simulated (Count)
system.cpu.cpi                               0.383101                       # CPI: Cycles Per Instruction ((Cycle/Count))
system.cpu.totalCpi                          0.383101                       # CPI: Total CPI of All Threads ((Cycle/Count))
system.cpu.ipc                               2.610275                       # IPC: Instructions Per Cycle ((Count/Cycle))
system.cpu.totalIpc                          2.610275                       # IPC: Total IPC of All Threads ((Count/Cycle))
system.cpu.intRegfileReads                  123054570                       # Number of integer regfile reads (Count)
system.cpu.intRegfileWrites                  59458006                       # Number of integer regfile writes (Count)
system.cpu.vecRegfileReads                  203219165                       # number of vector regfile reads (Count)
system.cpu.ccRegfileReads                    23112651                       # number of cc regfile reads (Count)
system.cpu.ccRegfileWrites                   23108859                       # number of cc regfile writes (Count)
system.cpu.miscRegfileReads                 145010565                       # number of misc regfile reads (Count)
system.cpu.miscRegfileWrites                       61                       # number of misc regfile writes (Count)
system.cpu.MemDepUnit__0.insertedLoads       30618884                       # Number of loads inserted to the mem dependence unit. (Count)
system.cpu.MemDepUnit__0.insertedStores       4239572                       # Number of stores inserted to the mem dependence unit. (Count)
system.cpu.MemDepUnit__0.conflictingLoads      2750196                       # Number of conflicting loads. (Count)
system.cpu.MemDepUnit__0.conflictingStores        74773                       # Number of conflicting stores. (Count)
system.cpu.MemDepUnit__1.insertedLoads              0                       # Number of loads inserted to the mem dependence unit. (Count)
system.cpu.MemDepUnit__1.insertedStores             0                       # Number of stores inserted to the mem dependence unit. (Count)
system.cpu.MemDepUnit__1.conflictingLoads            0                       # Number of conflicting loads. (Count)
system.cpu.MemDepUnit__1.conflictingStores            0                       # Number of conflicting stores. (Count)
system.cpu.MemDepUnit__2.insertedLoads              0                       # Number of loads inserted to the mem dependence unit. (Count)
system.cpu.MemDepUnit__2.insertedStores             0                       # Number of stores inserted to the mem dependence unit. (Count)
system.cpu.MemDepUnit__2.conflictingLoads            0                       # Number of conflicting loads. (Count)
system.cpu.MemDepUnit__2.conflictingStores            0                       # Number of conflicting stores. (Count)
system.cpu.MemDepUnit__3.insertedLoads              0                       # Number of loads inserted to the mem dependence unit. (Count)
system.cpu.MemDepUnit__3.insertedStores             0                       # Number of stores inserted to the mem dependence unit. (Count)
system.cpu.MemDepUnit__3.conflictingLoads            0                       # Number of conflicting loads. (Count)
system.cpu.MemDepUnit__3.conflictingStores            0                       # Number of conflicting stores. (Count)
system.cpu.branchPred.lookups                 6730555                       # Number of BP lookups (Count)
system.cpu.branchPred.condPredicted           6589290                       # Number of conditional branches predicted (Count)
system.cpu.branchPred.condIncorrect             17283                       # Number of conditional branches incorrect (Count)
system.cpu.branchPred.BTBLookups               406696                       # Number of BTB lookups (Count)
system.cpu.branchPred.BTBUpdates                 9717                       # Number of BTB updates (Count)
system.cpu.branchPred.BTBHits                  398608                       # Number of BTB hits (Count)
system.cpu.branchPred.BTBHitRatio            0.980113                       # BTB Hit Ratio (Ratio)
system.cpu.branchPred.RASUsed                   17169                       # Number of times the RAS was used to get a target. (Count)
system.cpu.branchPred.RASIncorrect                 32                       # Number of incorrect RAS predictions. (Count)
system.cpu.branchPred.indirectLookups            6092                       # Number of indirect predictor lookups. (Count)
system.cpu.branchPred.indirectHits               1318                       # Number of indirect target hits. (Count)
system.cpu.branchPred.indirectMisses             4774                       # Number of indirect misses. (Count)
system.cpu.branchPred.indirectMispredicted          583                       # Number of mispredicted indirect branches. (Count)
system.cpu.commit.commitSquashedInsts          650758                       # The number of squashed insts skipped by commit (Count)
system.cpu.commit.commitNonSpecStalls             119                       # The number of times commit has been forced to stall to communicate backwards (Count)
system.cpu.commit.branchMispredicts             16882                       # The number of times a branch was mispredicted (Count)
system.cpu.commit.numCommittedDist::samples     45131477                       # Number of insts commited each cycle (Count)
system.cpu.commit.numCommittedDist::mean     3.190959                       # Number of insts commited each cycle (Count)
system.cpu.commit.numCommittedDist::stdev     3.558678                       # Number of insts commited each cycle (Count)
system.cpu.commit.numCommittedDist::underflows            0      0.00%      0.00% # Number of insts commited each cycle (Count)
system.cpu.commit.numCommittedDist::0        18527344     41.05%     41.05% # Number of insts commited each cycle (Count)
system.cpu.commit.numCommittedDist::1         7197488     15.95%     57.00% # Number of insts commited each cycle (Count)
system.cpu.commit.numCommittedDist::2         1044316      2.31%     59.31% # Number of insts commited each cycle (Count)
system.cpu.commit.numCommittedDist::3          336712      0.75%     60.06% # Number of insts commited each cycle (Count)
system.cpu.commit.numCommittedDist::4          872531      1.93%     61.99% # Number of insts commited each cycle (Count)
system.cpu.commit.numCommittedDist::5         1141954      2.53%     64.52% # Number of insts commited each cycle (Count)
system.cpu.commit.numCommittedDist::6         1526525      3.38%     67.91% # Number of insts commited each cycle (Count)
system.cpu.commit.numCommittedDist::7          519472      1.15%     69.06% # Number of insts commited each cycle (Count)
system.cpu.commit.numCommittedDist::8        13965135     30.94%    100.00% # Number of insts commited each cycle (Count)
system.cpu.commit.numCommittedDist::overflows            0      0.00%    100.00% # Number of insts commited each cycle (Count)
system.cpu.commit.numCommittedDist::min_value            0                       # Number of insts commited each cycle (Count)
system.cpu.commit.numCommittedDist::max_value            8                       # Number of insts commited each cycle (Count)
system.cpu.commit.numCommittedDist::total     45131477                       # Number of insts commited each cycle (Count)
system.cpu.commit.instsCommitted            118406616                       # Number of instructions committed (Count)
system.cpu.commit.opsCommitted              144012684                       # Number of ops (including micro ops) committed (Count)
system.cpu.commit.memRefs                    34689372                       # Number of memory references committed (Count)
system.cpu.commit.loads                      30488344                       # Number of loads committed (Count)
system.cpu.commit.amos                             30                       # Number of atomic instructions committed (Count)
system.cpu.commit.membars                          38                       # Number of memory barriers committed (Count)
system.cpu.commit.branches                    6550270                       # Number of branches committed (Count)
system.cpu.commit.vectorInstructions         82445215                       # Number of committed Vector instructions. (Count)
system.cpu.commit.floating                          0                       # Number of committed floating point instructions. (Count)
system.cpu.commit.integer                    92136899                       # Number of committed integer instructions. (Count)
system.cpu.commit.functionCalls                 10803                       # Number of function calls committed. (Count)
system.cpu.commit.committedInstType_0::No_OpClass     10134838      7.04%      7.04% # Class of committed instruction (Count)
system.cpu.commit.committedInstType_0::IntAlu     43124562     29.94%     36.98% # Class of committed instruction (Count)
system.cpu.commit.committedInstType_0::IntMult      4022856      2.79%     39.78% # Class of committed instruction (Count)
system.cpu.commit.committedInstType_0::IntDiv         2554      0.00%     39.78% # Class of committed instruction (Count)
system.cpu.commit.committedInstType_0::FloatAdd            0      0.00%     39.78% # Class of committed instruction (Count)
system.cpu.commit.committedInstType_0::FloatCmp            0      0.00%     39.78% # Class of committed instruction (Count)
system.cpu.commit.committedInstType_0::FloatCvt            0      0.00%     39.78% # Class of committed instruction (Count)
system.cpu.commit.committedInstType_0::FloatMult            0      0.00%     39.78% # Class of committed instruction (Count)
system.cpu.commit.committedInstType_0::FloatMultAcc            0      0.00%     39.78% # Class of committed instruction (Count)
system.cpu.commit.committedInstType_0::FloatDiv            0      0.00%     39.78% # Class of committed instruction (Count)
system.cpu.commit.committedInstType_0::FloatMisc            2      0.00%     39.78% # Class of committed instruction (Count)
system.cpu.commit.committedInstType_0::FloatSqrt            0      0.00%     39.78% # Class of committed instruction (Count)
system.cpu.commit.committedInstType_0::SimdAdd     16020367     11.12%     50.90% # Class of committed instruction (Count)
system.cpu.commit.committedInstType_0::SimdAddAcc            0      0.00%     50.90% # Class of committed instruction (Count)
system.cpu.commit.committedInstType_0::SimdAlu          457      0.00%     50.90% # Class of committed instruction (Count)
system.cpu.commit.committedInstType_0::SimdCmp           97      0.00%     50.90% # Class of committed instruction (Count)
system.cpu.commit.committedInstType_0::SimdCvt            0      0.00%     50.90% # Class of committed instruction (Count)
system.cpu.commit.committedInstType_0::SimdMisc     16020395     11.12%     62.03% # Class of committed instruction (Count)
system.cpu.commit.committedInstType_0::SimdMult     16083328     11.17%     73.19% # Class of committed instruction (Count)
system.cpu.commit.committedInstType_0::SimdMultAcc      3913856      2.72%     75.91% # Class of committed instruction (Count)
system.cpu.commit.committedInstType_0::SimdShift            0      0.00%     75.91% # Class of committed instruction (Count)
system.cpu.commit.committedInstType_0::SimdShiftAcc            0      0.00%     75.91% # Class of committed instruction (Count)
system.cpu.commit.committedInstType_0::SimdDiv            0      0.00%     75.91% # Class of committed instruction (Count)
system.cpu.commit.committedInstType_0::SimdSqrt            0      0.00%     75.91% # Class of committed instruction (Count)
system.cpu.commit.committedInstType_0::SimdFloatAdd            0      0.00%     75.91% # Class of committed instruction (Count)
system.cpu.commit.committedInstType_0::SimdFloatAlu            0      0.00%     75.91% # Class of committed instruction (Count)
system.cpu.commit.committedInstType_0::SimdFloatCmp            0      0.00%     75.91% # Class of committed instruction (Count)
system.cpu.commit.committedInstType_0::SimdFloatCvt            0      0.00%     75.91% # Class of committed instruction (Count)
system.cpu.commit.committedInstType_0::SimdFloatDiv            0      0.00%     75.91% # Class of committed instruction (Count)
system.cpu.commit.committedInstType_0::SimdFloatMisc            0      0.00%     75.91% # Class of committed instruction (Count)
system.cpu.commit.committedInstType_0::SimdFloatMult            0      0.00%     75.91% # Class of committed instruction (Count)
system.cpu.commit.committedInstType_0::SimdFloatMultAcc            0      0.00%     75.91% # Class of committed instruction (Count)
system.cpu.commit.committedInstType_0::SimdFloatSqrt            0      0.00%     75.91% # Class of committed instruction (Count)
system.cpu.commit.committedInstType_0::SimdReduceAdd            0      0.00%     75.91% # Class of committed instruction (Count)
system.cpu.commit.committedInstType_0::SimdReduceAlu            0      0.00%     75.91% # Class of committed instruction (Count)
system.cpu.commit.committedInstType_0::SimdReduceCmp            0      0.00%     75.91% # Class of committed instruction (Count)
system.cpu.commit.committedInstType_0::SimdFloatReduceAdd            0      0.00%     75.91% # Class of committed instruction (Count)
system.cpu.commit.committedInstType_0::SimdFloatReduceCmp            0      0.00%     75.91% # Class of committed instruction (Count)
system.cpu.commit.committedInstType_0::SimdAes            0      0.00%     75.91% # Class of committed instruction (Count)
system.cpu.commit.committedInstType_0::SimdAesMix            0      0.00%     75.91% # Class of committed instruction (Count)
system.cpu.commit.committedInstType_0::SimdSha1Hash            0      0.00%     75.91% # Class of committed instruction (Count)
system.cpu.commit.committedInstType_0::SimdSha1Hash2            0      0.00%     75.91% # Class of committed instruction (Count)
system.cpu.commit.committedInstType_0::SimdSha256Hash            0      0.00%     75.91% # Class of committed instruction (Count)
system.cpu.commit.committedInstType_0::SimdSha256Hash2            0      0.00%     75.91% # Class of committed instruction (Count)
system.cpu.commit.committedInstType_0::SimdShaSigma2            0      0.00%     75.91% # Class of committed instruction (Count)
system.cpu.commit.committedInstType_0::SimdShaSigma3            0      0.00%     75.91% # Class of committed instruction (Count)
system.cpu.commit.committedInstType_0::SimdPredAlu            0      0.00%     75.91% # Class of committed instruction (Count)
system.cpu.commit.committedInstType_0::MemRead     30488344     21.17%     97.08% # Class of committed instruction (Count)
system.cpu.commit.committedInstType_0::MemWrite      4201028      2.92%    100.00% # Class of committed instruction (Count)
system.cpu.commit.committedInstType_0::FloatMemRead            0      0.00%    100.00% # Class of committed instruction (Count)
system.cpu.commit.committedInstType_0::FloatMemWrite            0      0.00%    100.00% # Class of committed instruction (Count)
system.cpu.commit.committedInstType_0::IprAccess            0      0.00%    100.00% # Class of committed instruction (Count)
system.cpu.commit.committedInstType_0::InstPrefetch            0      0.00%    100.00% # Class of committed instruction (Count)
system.cpu.commit.committedInstType_0::total    144012684                       # Class of committed instruction (Count)
system.cpu.commit.commitEligibleSamples      13965135                       # number cycles where commit BW limit reached (Cycle)
system.cpu.dcache.demandHits::cpu.data       32931157                       # number of demand (read+write) hits (Count)
system.cpu.dcache.demandHits::total          32931157                       # number of demand (read+write) hits (Count)
system.cpu.dcache.overallHits::cpu.data      32931157                       # number of overall hits (Count)
system.cpu.dcache.overallHits::total         32931157                       # number of overall hits (Count)
system.cpu.dcache.demandMisses::cpu.data       412018                       # number of demand (read+write) misses (Count)
system.cpu.dcache.demandMisses::total          412018                       # number of demand (read+write) misses (Count)
system.cpu.dcache.overallMisses::cpu.data       412018                       # number of overall misses (Count)
system.cpu.dcache.overallMisses::total         412018                       # number of overall misses (Count)
system.cpu.dcache.demandMissLatency::cpu.data  30679830484                       # number of demand (read+write) miss ticks (Tick)
system.cpu.dcache.demandMissLatency::total  30679830484                       # number of demand (read+write) miss ticks (Tick)
system.cpu.dcache.overallMissLatency::cpu.data  30679830484                       # number of overall miss ticks (Tick)
system.cpu.dcache.overallMissLatency::total  30679830484                       # number of overall miss ticks (Tick)
system.cpu.dcache.demandAccesses::cpu.data     33343175                       # number of demand (read+write) accesses (Count)
system.cpu.dcache.demandAccesses::total      33343175                       # number of demand (read+write) accesses (Count)
system.cpu.dcache.overallAccesses::cpu.data     33343175                       # number of overall (read+write) accesses (Count)
system.cpu.dcache.overallAccesses::total     33343175                       # number of overall (read+write) accesses (Count)
system.cpu.dcache.demandMissRate::cpu.data     0.012357                       # miss rate for demand accesses (Ratio)
system.cpu.dcache.demandMissRate::total      0.012357                       # miss rate for demand accesses (Ratio)
system.cpu.dcache.overallMissRate::cpu.data     0.012357                       # miss rate for overall accesses (Ratio)
system.cpu.dcache.overallMissRate::total     0.012357                       # miss rate for overall accesses (Ratio)
system.cpu.dcache.demandAvgMissLatency::cpu.data 74462.354761                       # average overall miss latency in ticks ((Tick/Count))
system.cpu.dcache.demandAvgMissLatency::total 74462.354761                       # average overall miss latency in ticks ((Tick/Count))
system.cpu.dcache.overallAvgMissLatency::cpu.data 74462.354761                       # average overall miss latency ((Tick/Count))
system.cpu.dcache.overallAvgMissLatency::total 74462.354761                       # average overall miss latency ((Tick/Count))
system.cpu.dcache.blockedCycles::no_mshrs       102109                       # number of cycles access was blocked (Cycle)
system.cpu.dcache.blockedCycles::no_targets          459                       # number of cycles access was blocked (Cycle)
system.cpu.dcache.blockedCauses::no_mshrs         2221                       # number of times access was blocked (Count)
system.cpu.dcache.blockedCauses::no_targets            8                       # number of times access was blocked (Count)
system.cpu.dcache.avgBlocked::no_mshrs      45.974336                       # average number of cycles each access was blocked ((Cycle/Count))
system.cpu.dcache.avgBlocked::no_targets    57.375000                       # average number of cycles each access was blocked ((Cycle/Count))
system.cpu.dcache.writebacks::writebacks        80400                       # number of writebacks (Count)
system.cpu.dcache.writebacks::total             80400                       # number of writebacks (Count)
system.cpu.dcache.demandMshrHits::cpu.data       183693                       # number of demand (read+write) MSHR hits (Count)
system.cpu.dcache.demandMshrHits::total        183693                       # number of demand (read+write) MSHR hits (Count)
system.cpu.dcache.overallMshrHits::cpu.data       183693                       # number of overall MSHR hits (Count)
system.cpu.dcache.overallMshrHits::total       183693                       # number of overall MSHR hits (Count)
system.cpu.dcache.demandMshrMisses::cpu.data       228325                       # number of demand (read+write) MSHR misses (Count)
system.cpu.dcache.demandMshrMisses::total       228325                       # number of demand (read+write) MSHR misses (Count)
system.cpu.dcache.overallMshrMisses::cpu.data       228325                       # number of overall MSHR misses (Count)
system.cpu.dcache.overallMshrMisses::total       228325                       # number of overall MSHR misses (Count)
system.cpu.dcache.demandMshrMissLatency::cpu.data  16417001696                       # number of demand (read+write) MSHR miss ticks (Tick)
system.cpu.dcache.demandMshrMissLatency::total  16417001696                       # number of demand (read+write) MSHR miss ticks (Tick)
system.cpu.dcache.overallMshrMissLatency::cpu.data  16417001696                       # number of overall MSHR miss ticks (Tick)
system.cpu.dcache.overallMshrMissLatency::total  16417001696                       # number of overall MSHR miss ticks (Tick)
system.cpu.dcache.demandMshrMissRate::cpu.data     0.006848                       # mshr miss ratio for demand accesses (Ratio)
system.cpu.dcache.demandMshrMissRate::total     0.006848                       # mshr miss ratio for demand accesses (Ratio)
system.cpu.dcache.overallMshrMissRate::cpu.data     0.006848                       # mshr miss ratio for overall accesses (Ratio)
system.cpu.dcache.overallMshrMissRate::total     0.006848                       # mshr miss ratio for overall accesses (Ratio)
system.cpu.dcache.demandAvgMshrMissLatency::cpu.data 71901.901658                       # average overall mshr miss latency ((Tick/Count))
system.cpu.dcache.demandAvgMshrMissLatency::total 71901.901658                       # average overall mshr miss latency ((Tick/Count))
system.cpu.dcache.overallAvgMshrMissLatency::cpu.data 71901.901658                       # average overall mshr miss latency ((Tick/Count))
system.cpu.dcache.overallAvgMshrMissLatency::total 71901.901658                       # average overall mshr miss latency ((Tick/Count))
system.cpu.dcache.replacements                 227301                       # number of replacements (Count)
system.cpu.dcache.ReadReq.hits::cpu.data     28735773                       # number of ReadReq hits (Count)
system.cpu.dcache.ReadReq.hits::total        28735773                       # number of ReadReq hits (Count)
system.cpu.dcache.ReadReq.misses::cpu.data       406390                       # number of ReadReq misses (Count)
system.cpu.dcache.ReadReq.misses::total        406390                       # number of ReadReq misses (Count)
system.cpu.dcache.ReadReq.missLatency::cpu.data  30343327000                       # number of ReadReq miss ticks (Tick)
system.cpu.dcache.ReadReq.missLatency::total  30343327000                       # number of ReadReq miss ticks (Tick)
system.cpu.dcache.ReadReq.accesses::cpu.data     29142163                       # number of ReadReq accesses(hits+misses) (Count)
system.cpu.dcache.ReadReq.accesses::total     29142163                       # number of ReadReq accesses(hits+misses) (Count)
system.cpu.dcache.ReadReq.missRate::cpu.data     0.013945                       # miss rate for ReadReq accesses (Ratio)
system.cpu.dcache.ReadReq.missRate::total     0.013945                       # miss rate for ReadReq accesses (Ratio)
system.cpu.dcache.ReadReq.avgMissLatency::cpu.data 74665.535569                       # average ReadReq miss latency ((Tick/Count))
system.cpu.dcache.ReadReq.avgMissLatency::total 74665.535569                       # average ReadReq miss latency ((Tick/Count))
system.cpu.dcache.ReadReq.mshrHits::cpu.data       180297                       # number of ReadReq MSHR hits (Count)
system.cpu.dcache.ReadReq.mshrHits::total       180297                       # number of ReadReq MSHR hits (Count)
system.cpu.dcache.ReadReq.mshrMisses::cpu.data       226093                       # number of ReadReq MSHR misses (Count)
system.cpu.dcache.ReadReq.mshrMisses::total       226093                       # number of ReadReq MSHR misses (Count)
system.cpu.dcache.ReadReq.mshrMissLatency::cpu.data  16282868000                       # number of ReadReq MSHR miss ticks (Tick)
system.cpu.dcache.ReadReq.mshrMissLatency::total  16282868000                       # number of ReadReq MSHR miss ticks (Tick)
system.cpu.dcache.ReadReq.mshrMissRate::cpu.data     0.007758                       # mshr miss rate for ReadReq accesses (Ratio)
system.cpu.dcache.ReadReq.mshrMissRate::total     0.007758                       # mshr miss rate for ReadReq accesses (Ratio)
system.cpu.dcache.ReadReq.avgMshrMissLatency::cpu.data 72018.452584                       # average ReadReq mshr miss latency ((Tick/Count))
system.cpu.dcache.ReadReq.avgMshrMissLatency::total 72018.452584                       # average ReadReq mshr miss latency ((Tick/Count))
system.cpu.dcache.SwapReq.hits::cpu.data           27                       # number of SwapReq hits (Count)
system.cpu.dcache.SwapReq.hits::total              27                       # number of SwapReq hits (Count)
system.cpu.dcache.SwapReq.misses::cpu.data            3                       # number of SwapReq misses (Count)
system.cpu.dcache.SwapReq.misses::total             3                       # number of SwapReq misses (Count)
system.cpu.dcache.SwapReq.missLatency::cpu.data       103000                       # number of SwapReq miss ticks (Tick)
system.cpu.dcache.SwapReq.missLatency::total       103000                       # number of SwapReq miss ticks (Tick)
system.cpu.dcache.SwapReq.accesses::cpu.data           30                       # number of SwapReq accesses(hits+misses) (Count)
system.cpu.dcache.SwapReq.accesses::total           30                       # number of SwapReq accesses(hits+misses) (Count)
system.cpu.dcache.SwapReq.missRate::cpu.data     0.100000                       # miss rate for SwapReq accesses (Ratio)
system.cpu.dcache.SwapReq.missRate::total     0.100000                       # miss rate for SwapReq accesses (Ratio)
system.cpu.dcache.SwapReq.avgMissLatency::cpu.data 34333.333333                       # average SwapReq miss latency ((Tick/Count))
system.cpu.dcache.SwapReq.avgMissLatency::total 34333.333333                       # average SwapReq miss latency ((Tick/Count))
system.cpu.dcache.SwapReq.mshrMisses::cpu.data            3                       # number of SwapReq MSHR misses (Count)
system.cpu.dcache.SwapReq.mshrMisses::total            3                       # number of SwapReq MSHR misses (Count)
system.cpu.dcache.SwapReq.mshrMissLatency::cpu.data       100000                       # number of SwapReq MSHR miss ticks (Tick)
system.cpu.dcache.SwapReq.mshrMissLatency::total       100000                       # number of SwapReq MSHR miss ticks (Tick)
system.cpu.dcache.SwapReq.mshrMissRate::cpu.data     0.100000                       # mshr miss rate for SwapReq accesses (Ratio)
system.cpu.dcache.SwapReq.mshrMissRate::total     0.100000                       # mshr miss rate for SwapReq accesses (Ratio)
system.cpu.dcache.SwapReq.avgMshrMissLatency::cpu.data 33333.333333                       # average SwapReq mshr miss latency ((Tick/Count))
system.cpu.dcache.SwapReq.avgMshrMissLatency::total 33333.333333                       # average SwapReq mshr miss latency ((Tick/Count))
system.cpu.dcache.WriteLineReq.misses::cpu.data          131                       # number of WriteLineReq misses (Count)
system.cpu.dcache.WriteLineReq.misses::total          131                       # number of WriteLineReq misses (Count)
system.cpu.dcache.WriteLineReq.missLatency::cpu.data      4173908                       # number of WriteLineReq miss ticks (Tick)
system.cpu.dcache.WriteLineReq.missLatency::total      4173908                       # number of WriteLineReq miss ticks (Tick)
system.cpu.dcache.WriteLineReq.accesses::cpu.data          131                       # number of WriteLineReq accesses(hits+misses) (Count)
system.cpu.dcache.WriteLineReq.accesses::total          131                       # number of WriteLineReq accesses(hits+misses) (Count)
system.cpu.dcache.WriteLineReq.missRate::cpu.data            1                       # miss rate for WriteLineReq accesses (Ratio)
system.cpu.dcache.WriteLineReq.missRate::total            1                       # miss rate for WriteLineReq accesses (Ratio)
system.cpu.dcache.WriteLineReq.avgMissLatency::cpu.data 31861.893130                       # average WriteLineReq miss latency ((Tick/Count))
system.cpu.dcache.WriteLineReq.avgMissLatency::total 31861.893130                       # average WriteLineReq miss latency ((Tick/Count))
system.cpu.dcache.WriteLineReq.mshrMisses::cpu.data          131                       # number of WriteLineReq MSHR misses (Count)
system.cpu.dcache.WriteLineReq.mshrMisses::total          131                       # number of WriteLineReq MSHR misses (Count)
system.cpu.dcache.WriteLineReq.mshrMissLatency::cpu.data      4042908                       # number of WriteLineReq MSHR miss ticks (Tick)
system.cpu.dcache.WriteLineReq.mshrMissLatency::total      4042908                       # number of WriteLineReq MSHR miss ticks (Tick)
system.cpu.dcache.WriteLineReq.mshrMissRate::cpu.data            1                       # mshr miss rate for WriteLineReq accesses (Ratio)
system.cpu.dcache.WriteLineReq.mshrMissRate::total            1                       # mshr miss rate for WriteLineReq accesses (Ratio)
system.cpu.dcache.WriteLineReq.avgMshrMissLatency::cpu.data 30861.893130                       # average WriteLineReq mshr miss latency ((Tick/Count))
system.cpu.dcache.WriteLineReq.avgMshrMissLatency::total 30861.893130                       # average WriteLineReq mshr miss latency ((Tick/Count))
system.cpu.dcache.WriteReq.hits::cpu.data      4195384                       # number of WriteReq hits (Count)
system.cpu.dcache.WriteReq.hits::total        4195384                       # number of WriteReq hits (Count)
system.cpu.dcache.WriteReq.misses::cpu.data         5497                       # number of WriteReq misses (Count)
system.cpu.dcache.WriteReq.misses::total         5497                       # number of WriteReq misses (Count)
system.cpu.dcache.WriteReq.missLatency::cpu.data    332329576                       # number of WriteReq miss ticks (Tick)
system.cpu.dcache.WriteReq.missLatency::total    332329576                       # number of WriteReq miss ticks (Tick)
system.cpu.dcache.WriteReq.accesses::cpu.data      4200881                       # number of WriteReq accesses(hits+misses) (Count)
system.cpu.dcache.WriteReq.accesses::total      4200881                       # number of WriteReq accesses(hits+misses) (Count)
system.cpu.dcache.WriteReq.missRate::cpu.data     0.001309                       # miss rate for WriteReq accesses (Ratio)
system.cpu.dcache.WriteReq.missRate::total     0.001309                       # miss rate for WriteReq accesses (Ratio)
system.cpu.dcache.WriteReq.avgMissLatency::cpu.data 60456.535565                       # average WriteReq miss latency ((Tick/Count))
system.cpu.dcache.WriteReq.avgMissLatency::total 60456.535565                       # average WriteReq miss latency ((Tick/Count))
system.cpu.dcache.WriteReq.mshrHits::cpu.data         3396                       # number of WriteReq MSHR hits (Count)
system.cpu.dcache.WriteReq.mshrHits::total         3396                       # number of WriteReq MSHR hits (Count)
system.cpu.dcache.WriteReq.mshrMisses::cpu.data         2101                       # number of WriteReq MSHR misses (Count)
system.cpu.dcache.WriteReq.mshrMisses::total         2101                       # number of WriteReq MSHR misses (Count)
system.cpu.dcache.WriteReq.mshrMissLatency::cpu.data    130090788                       # number of WriteReq MSHR miss ticks (Tick)
system.cpu.dcache.WriteReq.mshrMissLatency::total    130090788                       # number of WriteReq MSHR miss ticks (Tick)
system.cpu.dcache.WriteReq.mshrMissRate::cpu.data     0.000500                       # mshr miss rate for WriteReq accesses (Ratio)
system.cpu.dcache.WriteReq.mshrMissRate::total     0.000500                       # mshr miss rate for WriteReq accesses (Ratio)
system.cpu.dcache.WriteReq.avgMshrMissLatency::cpu.data 61918.509281                       # average WriteReq mshr miss latency ((Tick/Count))
system.cpu.dcache.WriteReq.avgMshrMissLatency::total 61918.509281                       # average WriteReq mshr miss latency ((Tick/Count))
system.cpu.dcache.power_state.pwrStateResidencyTicks::UNDEFINED  22680846000                       # Cumulative time (in ticks) in various power states (Tick)
system.cpu.dcache.tags.tagsInUse          1022.361074                       # Average ticks per tags in use ((Tick/Count))
system.cpu.dcache.tags.totalRefs             26020929                       # Total number of references to valid blocks. (Count)
system.cpu.dcache.tags.sampledRefs             227301                       # Sample count of references to valid blocks. (Count)
system.cpu.dcache.tags.avgRefs             114.477847                       # Average number of references to valid blocks. ((Count/Count))
system.cpu.dcache.tags.warmupTick              253500                       # The tick when the warmup percentage was hit. (Tick)
system.cpu.dcache.tags.occupancies::cpu.data  1022.361074                       # Average occupied blocks per tick, per requestor ((Count/Tick))
system.cpu.dcache.tags.avgOccs::cpu.data     0.998399                       # Average percentage of cache occupancy ((Ratio/Tick))
system.cpu.dcache.tags.avgOccs::total        0.998399                       # Average percentage of cache occupancy ((Ratio/Tick))
system.cpu.dcache.tags.occupanciesTaskId::1024         1024                       # Occupied blocks per task id (Count)
system.cpu.dcache.tags.ageTaskId_1024::0           80                       # Occupied blocks per task id, per block age (Count)
system.cpu.dcache.tags.ageTaskId_1024::1          659                       # Occupied blocks per task id, per block age (Count)
system.cpu.dcache.tags.ageTaskId_1024::2          254                       # Occupied blocks per task id, per block age (Count)
system.cpu.dcache.tags.ageTaskId_1024::3           26                       # Occupied blocks per task id, per block age (Count)
system.cpu.dcache.tags.ageTaskId_1024::4            5                       # Occupied blocks per task id, per block age (Count)
system.cpu.dcache.tags.ratioOccsTaskId::1024            1                       # Ratio of occupied blocks and all blocks, per task id (Ratio)
system.cpu.dcache.tags.tagAccesses          133601145                       # Number of tag accesses (Count)
system.cpu.dcache.tags.dataAccesses         133601145                       # Number of data accesses (Count)
system.cpu.dcache.tags.power_state.pwrStateResidencyTicks::UNDEFINED  22680846000                       # Cumulative time (in ticks) in various power states (Tick)
system.cpu.decode.idleCycles                  7063575                       # Number of cycles decode is idle (Cycle)
system.cpu.decode.blockedCycles              18048540                       # Number of cycles decode is blocked (Cycle)
system.cpu.decode.runCycles                  19431015                       # Number of cycles decode is running (Cycle)
system.cpu.decode.unblockCycles                668607                       # Number of cycles decode is unblocking (Cycle)
system.cpu.decode.squashCycles                  18427                       # Number of cycles decode is squashing (Cycle)
system.cpu.decode.branchResolved               375567                       # Number of times decode resolved a branch (Count)
system.cpu.decode.branchMispred                   740                       # Number of times decode detected a branch misprediction (Count)
system.cpu.decode.decodedInsts              144872345                       # Number of instructions handled by decode (Count)
system.cpu.decode.squashedInsts                  2516                       # Number of squashed instructions handled by decode (Count)
system.cpu.fetch.icacheStallCycles            7745149                       # Number of cycles fetch is stalled on an Icache miss (Cycle)
system.cpu.fetch.insts                      119338936                       # Number of instructions fetch has processed (Count)
system.cpu.fetch.branches                     6730555                       # Number of branches that fetch encountered (Count)
system.cpu.fetch.predictedBranches             417095                       # Number of branches that fetch has predicted taken (Count)
system.cpu.fetch.cycles                      37463152                       # Number of cycles fetch has run and was not squashing or blocked (Cycle)
system.cpu.fetch.squashCycles                   38304                       # Number of cycles fetch has spent squashing (Cycle)
system.cpu.fetch.miscStallCycles                  353                       # Number of cycles fetch has spent waiting on interrupts, or bad addresses, or out of MSHRs (Cycle)
system.cpu.fetch.pendingTrapStallCycles          2301                       # Number of stall cycles due to pending traps (Cycle)
system.cpu.fetch.icacheWaitRetryStallCycles           57                       # Number of stall cycles due to full MSHR (Cycle)
system.cpu.fetch.cacheLines                   7699045                       # Number of cache lines fetched (Count)
system.cpu.fetch.icacheSquashes                  6662                       # Number of outstanding Icache misses that were squashed (Count)
system.cpu.fetch.nisnDist::samples           45230164                       # Number of instructions fetched each cycle (Total) (Count)
system.cpu.fetch.nisnDist::mean              3.207942                       # Number of instructions fetched each cycle (Total) (Count)
system.cpu.fetch.nisnDist::stdev             3.690567                       # Number of instructions fetched each cycle (Total) (Count)
system.cpu.fetch.nisnDist::underflows               0      0.00%      0.00% # Number of instructions fetched each cycle (Total) (Count)
system.cpu.fetch.nisnDist::0                 24690516     54.59%     54.59% # Number of instructions fetched each cycle (Total) (Count)
system.cpu.fetch.nisnDist::1                   173371      0.38%     54.97% # Number of instructions fetched each cycle (Total) (Count)
system.cpu.fetch.nisnDist::2                   517035      1.14%     56.12% # Number of instructions fetched each cycle (Total) (Count)
system.cpu.fetch.nisnDist::3                   295589      0.65%     56.77% # Number of instructions fetched each cycle (Total) (Count)
system.cpu.fetch.nisnDist::4                    56252      0.12%     56.89% # Number of instructions fetched each cycle (Total) (Count)
system.cpu.fetch.nisnDist::5                  4266105      9.43%     66.32% # Number of instructions fetched each cycle (Total) (Count)
system.cpu.fetch.nisnDist::6                   157190      0.35%     66.67% # Number of instructions fetched each cycle (Total) (Count)
system.cpu.fetch.nisnDist::7                    89978      0.20%     66.87% # Number of instructions fetched each cycle (Total) (Count)
system.cpu.fetch.nisnDist::8                 14984128     33.13%    100.00% # Number of instructions fetched each cycle (Total) (Count)
system.cpu.fetch.nisnDist::overflows                0      0.00%    100.00% # Number of instructions fetched each cycle (Total) (Count)
system.cpu.fetch.nisnDist::min_value                0                       # Number of instructions fetched each cycle (Total) (Count)
system.cpu.fetch.nisnDist::max_value                8                       # Number of instructions fetched each cycle (Total) (Count)
system.cpu.fetch.nisnDist::total             45230164                       # Number of instructions fetched each cycle (Total) (Count)
system.cpu.fetch.branchRate                  0.148375                       # Number of branch fetches per cycle (Ratio)
system.cpu.fetch.rate                        2.630831                       # Number of inst fetches per cycle ((Count/Cycle))
system.cpu.icache.demandHits::cpu.inst        7696585                       # number of demand (read+write) hits (Count)
system.cpu.icache.demandHits::total           7696585                       # number of demand (read+write) hits (Count)
system.cpu.icache.overallHits::cpu.inst       7696585                       # number of overall hits (Count)
system.cpu.icache.overallHits::total          7696585                       # number of overall hits (Count)
system.cpu.icache.demandMisses::cpu.inst         2460                       # number of demand (read+write) misses (Count)
system.cpu.icache.demandMisses::total            2460                       # number of demand (read+write) misses (Count)
system.cpu.icache.overallMisses::cpu.inst         2460                       # number of overall misses (Count)
system.cpu.icache.overallMisses::total           2460                       # number of overall misses (Count)
system.cpu.icache.demandMissLatency::cpu.inst    163436499                       # number of demand (read+write) miss ticks (Tick)
system.cpu.icache.demandMissLatency::total    163436499                       # number of demand (read+write) miss ticks (Tick)
system.cpu.icache.overallMissLatency::cpu.inst    163436499                       # number of overall miss ticks (Tick)
system.cpu.icache.overallMissLatency::total    163436499                       # number of overall miss ticks (Tick)
system.cpu.icache.demandAccesses::cpu.inst      7699045                       # number of demand (read+write) accesses (Count)
system.cpu.icache.demandAccesses::total       7699045                       # number of demand (read+write) accesses (Count)
system.cpu.icache.overallAccesses::cpu.inst      7699045                       # number of overall (read+write) accesses (Count)
system.cpu.icache.overallAccesses::total      7699045                       # number of overall (read+write) accesses (Count)
system.cpu.icache.demandMissRate::cpu.inst     0.000320                       # miss rate for demand accesses (Ratio)
system.cpu.icache.demandMissRate::total      0.000320                       # miss rate for demand accesses (Ratio)
system.cpu.icache.overallMissRate::cpu.inst     0.000320                       # miss rate for overall accesses (Ratio)
system.cpu.icache.overallMissRate::total     0.000320                       # miss rate for overall accesses (Ratio)
system.cpu.icache.demandAvgMissLatency::cpu.inst 66437.601220                       # average overall miss latency in ticks ((Tick/Count))
system.cpu.icache.demandAvgMissLatency::total 66437.601220                       # average overall miss latency in ticks ((Tick/Count))
system.cpu.icache.overallAvgMissLatency::cpu.inst 66437.601220                       # average overall miss latency ((Tick/Count))
system.cpu.icache.overallAvgMissLatency::total 66437.601220                       # average overall miss latency ((Tick/Count))
system.cpu.icache.blockedCycles::no_mshrs         1028                       # number of cycles access was blocked (Cycle)
system.cpu.icache.blockedCycles::no_targets            0                       # number of cycles access was blocked (Cycle)
system.cpu.icache.blockedCauses::no_mshrs           11                       # number of times access was blocked (Count)
system.cpu.icache.blockedCauses::no_targets            0                       # number of times access was blocked (Count)
system.cpu.icache.avgBlocked::no_mshrs      93.454545                       # average number of cycles each access was blocked ((Cycle/Count))
system.cpu.icache.avgBlocked::no_targets          nan                       # average number of cycles each access was blocked ((Cycle/Count))
system.cpu.icache.writebacks::writebacks         1674                       # number of writebacks (Count)
system.cpu.icache.writebacks::total              1674                       # number of writebacks (Count)
system.cpu.icache.demandMshrHits::cpu.inst          530                       # number of demand (read+write) MSHR hits (Count)
system.cpu.icache.demandMshrHits::total           530                       # number of demand (read+write) MSHR hits (Count)
system.cpu.icache.overallMshrHits::cpu.inst          530                       # number of overall MSHR hits (Count)
system.cpu.icache.overallMshrHits::total          530                       # number of overall MSHR hits (Count)
system.cpu.icache.demandMshrMisses::cpu.inst         1930                       # number of demand (read+write) MSHR misses (Count)
system.cpu.icache.demandMshrMisses::total         1930                       # number of demand (read+write) MSHR misses (Count)
system.cpu.icache.overallMshrMisses::cpu.inst         1930                       # number of overall MSHR misses (Count)
system.cpu.icache.overallMshrMisses::total         1930                       # number of overall MSHR misses (Count)
system.cpu.icache.demandMshrMissLatency::cpu.inst    129689000                       # number of demand (read+write) MSHR miss ticks (Tick)
system.cpu.icache.demandMshrMissLatency::total    129689000                       # number of demand (read+write) MSHR miss ticks (Tick)
system.cpu.icache.overallMshrMissLatency::cpu.inst    129689000                       # number of overall MSHR miss ticks (Tick)
system.cpu.icache.overallMshrMissLatency::total    129689000                       # number of overall MSHR miss ticks (Tick)
system.cpu.icache.demandMshrMissRate::cpu.inst     0.000251                       # mshr miss ratio for demand accesses (Ratio)
system.cpu.icache.demandMshrMissRate::total     0.000251                       # mshr miss ratio for demand accesses (Ratio)
system.cpu.icache.overallMshrMissRate::cpu.inst     0.000251                       # mshr miss ratio for overall accesses (Ratio)
system.cpu.icache.overallMshrMissRate::total     0.000251                       # mshr miss ratio for overall accesses (Ratio)
system.cpu.icache.demandAvgMshrMissLatency::cpu.inst 67196.373057                       # average overall mshr miss latency ((Tick/Count))
system.cpu.icache.demandAvgMshrMissLatency::total 67196.373057                       # average overall mshr miss latency ((Tick/Count))
system.cpu.icache.overallAvgMshrMissLatency::cpu.inst 67196.373057                       # average overall mshr miss latency ((Tick/Count))
system.cpu.icache.overallAvgMshrMissLatency::total 67196.373057                       # average overall mshr miss latency ((Tick/Count))
system.cpu.icache.replacements                   1674                       # number of replacements (Count)
system.cpu.icache.ReadReq.hits::cpu.inst      7696585                       # number of ReadReq hits (Count)
system.cpu.icache.ReadReq.hits::total         7696585                       # number of ReadReq hits (Count)
system.cpu.icache.ReadReq.misses::cpu.inst         2460                       # number of ReadReq misses (Count)
system.cpu.icache.ReadReq.misses::total          2460                       # number of ReadReq misses (Count)
system.cpu.icache.ReadReq.missLatency::cpu.inst    163436499                       # number of ReadReq miss ticks (Tick)
system.cpu.icache.ReadReq.missLatency::total    163436499                       # number of ReadReq miss ticks (Tick)
system.cpu.icache.ReadReq.accesses::cpu.inst      7699045                       # number of ReadReq accesses(hits+misses) (Count)
system.cpu.icache.ReadReq.accesses::total      7699045                       # number of ReadReq accesses(hits+misses) (Count)
system.cpu.icache.ReadReq.missRate::cpu.inst     0.000320                       # miss rate for ReadReq accesses (Ratio)
system.cpu.icache.ReadReq.missRate::total     0.000320                       # miss rate for ReadReq accesses (Ratio)
system.cpu.icache.ReadReq.avgMissLatency::cpu.inst 66437.601220                       # average ReadReq miss latency ((Tick/Count))
system.cpu.icache.ReadReq.avgMissLatency::total 66437.601220                       # average ReadReq miss latency ((Tick/Count))
system.cpu.icache.ReadReq.mshrHits::cpu.inst          530                       # number of ReadReq MSHR hits (Count)
system.cpu.icache.ReadReq.mshrHits::total          530                       # number of ReadReq MSHR hits (Count)
system.cpu.icache.ReadReq.mshrMisses::cpu.inst         1930                       # number of ReadReq MSHR misses (Count)
system.cpu.icache.ReadReq.mshrMisses::total         1930                       # number of ReadReq MSHR misses (Count)
system.cpu.icache.ReadReq.mshrMissLatency::cpu.inst    129689000                       # number of ReadReq MSHR miss ticks (Tick)
system.cpu.icache.ReadReq.mshrMissLatency::total    129689000                       # number of ReadReq MSHR miss ticks (Tick)
system.cpu.icache.ReadReq.mshrMissRate::cpu.inst     0.000251                       # mshr miss rate for ReadReq accesses (Ratio)
system.cpu.icache.ReadReq.mshrMissRate::total     0.000251                       # mshr miss rate for ReadReq accesses (Ratio)
system.cpu.icache.ReadReq.avgMshrMissLatency::cpu.inst 67196.373057                       # average ReadReq mshr miss latency ((Tick/Count))
system.cpu.icache.ReadReq.avgMshrMissLatency::total 67196.373057                       # average ReadReq mshr miss latency ((Tick/Count))
system.cpu.icache.power_state.pwrStateResidencyTicks::UNDEFINED  22680846000                       # Cumulative time (in ticks) in various power states (Tick)
system.cpu.icache.tags.tagsInUse           255.828980                       # Average ticks per tags in use ((Tick/Count))
system.cpu.icache.tags.totalRefs               203847                       # Total number of references to valid blocks. (Count)
system.cpu.icache.tags.sampledRefs               1674                       # Sample count of references to valid blocks. (Count)
system.cpu.icache.tags.avgRefs             121.772401                       # Average number of references to valid blocks. ((Count/Count))
system.cpu.icache.tags.warmupTick               87500                       # The tick when the warmup percentage was hit. (Tick)
system.cpu.icache.tags.occupancies::cpu.inst   255.828980                       # Average occupied blocks per tick, per requestor ((Count/Tick))
system.cpu.icache.tags.avgOccs::cpu.inst     0.999332                       # Average percentage of cache occupancy ((Ratio/Tick))
system.cpu.icache.tags.avgOccs::total        0.999332                       # Average percentage of cache occupancy ((Ratio/Tick))
system.cpu.icache.tags.occupanciesTaskId::1024          256                       # Occupied blocks per task id (Count)
system.cpu.icache.tags.ageTaskId_1024::4          256                       # Occupied blocks per task id, per block age (Count)
system.cpu.icache.tags.ratioOccsTaskId::1024            1                       # Ratio of occupied blocks and all blocks, per task id (Ratio)
system.cpu.icache.tags.tagAccesses           30798110                       # Number of tag accesses (Count)
system.cpu.icache.tags.dataAccesses          30798110                       # Number of data accesses (Count)
system.cpu.icache.tags.power_state.pwrStateResidencyTicks::UNDEFINED  22680846000                       # Cumulative time (in ticks) in various power states (Tick)
system.cpu.iew.idleCycles                           0                       # Number of cycles IEW is idle (Cycle)
system.cpu.iew.squashCycles                     18427                       # Number of cycles IEW is squashing (Cycle)
system.cpu.iew.blockCycles                     835256                       # Number of cycles IEW is blocking (Cycle)
system.cpu.iew.unblockCycles                  2905736                       # Number of cycles IEW is unblocking (Cycle)
system.cpu.iew.dispatchedInsts              144673647                       # Number of instructions dispatched to IQ (Count)
system.cpu.iew.dispSquashedInsts                 2332                       # Number of squashed instructions skipped by dispatch (Count)
system.cpu.iew.dispLoadInsts                 30618884                       # Number of dispatched load instructions (Count)
system.cpu.iew.dispStoreInsts                 4239572                       # Number of dispatched store instructions (Count)
system.cpu.iew.dispNonSpecInsts                   178                       # Number of dispatched non-speculative instructions (Count)
system.cpu.iew.iqFullEvents                     30576                       # Number of times the IQ has become full, causing a stall (Count)
system.cpu.iew.lsqFullEvents                  2870949                       # Number of times the LSQ has become full, causing a stall (Count)
system.cpu.iew.memOrderViolationEvents            907                       # Number of memory order violations (Count)
system.cpu.iew.predictedTakenIncorrect           7794                       # Number of branches that were predicted taken incorrectly (Count)
system.cpu.iew.predictedNotTakenIncorrect        11417                       # Number of branches that were predicted not taken incorrectly (Count)
system.cpu.iew.branchMispredicts                19211                       # Number of branch mispredicts detected at execute (Count)
system.cpu.iew.instsToCommit                144354785                       # Cumulative count of insts sent to commit (Count)
system.cpu.iew.writebackCount               144341616                       # Cumulative count of insts written-back (Count)
system.cpu.iew.producerInst                 127881193                       # Number of instructions producing a value (Count)
system.cpu.iew.consumerInst                 203690619                       # Number of instructions consuming a value (Count)
system.cpu.iew.wbRate                        3.182016                       # Insts written-back per cycle ((Count/Cycle))
system.cpu.iew.wbFanout                      0.627821                       # Average fanout of values written-back ((Count/Count))
system.cpu.lsq0.forwLoads                     1442457                       # Number of loads that had data forwarded from stores (Count)
system.cpu.lsq0.squashedLoads                  130511                       # Number of loads squashed (Count)
system.cpu.lsq0.ignoredResponses                   44                       # Number of memory responses ignored because the instruction is squashed (Count)
system.cpu.lsq0.memOrderViolation                 907                       # Number of memory ordering violations (Count)
system.cpu.lsq0.squashedStores                  38517                       # Number of stores squashed (Count)
system.cpu.lsq0.rescheduledLoads                 9251                       # Number of loads that were rescheduled (Count)
system.cpu.lsq0.blockedByCache                   2129                       # Number of times an access to memory failed due to the cache being blocked (Count)
system.cpu.lsq0.loadToUse::samples           30488344                       # Distribution of cycle latency between the first time a load is issued and its completion (Unspecified)
system.cpu.lsq0.loadToUse::mean              5.351465                       # Distribution of cycle latency between the first time a load is issued and its completion (Unspecified)
system.cpu.lsq0.loadToUse::stdev            19.038741                       # Distribution of cycle latency between the first time a load is issued and its completion (Unspecified)
system.cpu.lsq0.loadToUse::0-9               30089958     98.69%     98.69% # Distribution of cycle latency between the first time a load is issued and its completion (Unspecified)
system.cpu.lsq0.loadToUse::10-19                 2859      0.01%     98.70% # Distribution of cycle latency between the first time a load is issued and its completion (Unspecified)
system.cpu.lsq0.loadToUse::20-29                31886      0.10%     98.81% # Distribution of cycle latency between the first time a load is issued and its completion (Unspecified)
system.cpu.lsq0.loadToUse::30-39                 1449      0.00%     98.81% # Distribution of cycle latency between the first time a load is issued and its completion (Unspecified)
system.cpu.lsq0.loadToUse::40-49                  905      0.00%     98.81% # Distribution of cycle latency between the first time a load is issued and its completion (Unspecified)
system.cpu.lsq0.loadToUse::50-59                  292      0.00%     98.82% # Distribution of cycle latency between the first time a load is issued and its completion (Unspecified)
[...]
system.mem_ctrls.dram.perBankWrBursts::9           19                       # Per bank write bursts (Count)
system.mem_ctrls.dram.perBankWrBursts::10           17                       # Per bank write bursts (Count)
system.mem_ctrls.dram.perBankWrBursts::11            0                       # Per bank write bursts (Count)
system.mem_ctrls.dram.perBankWrBursts::12           25                       # Per bank write bursts (Count)
system.mem_ctrls.dram.perBankWrBursts::13           19                       # Per bank write bursts (Count)
system.mem_ctrls.dram.perBankWrBursts::14            0                       # Per bank write bursts (Count)
system.mem_ctrls.dram.perBankWrBursts::15           17                       # Per bank write bursts (Count)
system.mem_ctrls.dram.totQLat                10238750                       # Total ticks spent queuing (Tick)
system.mem_ctrls.dram.totBusLat               2755000                       # Total ticks spent in databus transfers (Tick)
system.mem_ctrls.dram.totMemAccLat           20570000                       # Total ticks spent from burst creation until serviced by the DRAM (Tick)
system.mem_ctrls.dram.avgQLat                18582.12                       # Average queueing delay per DRAM burst ((Tick/Count))
system.mem_ctrls.dram.avgBusLat               5000.00                       # Average bus latency per DRAM burst ((Tick/Count))
system.mem_ctrls.dram.avgMemAccLat           37332.12                       # Average memory access latency per DRAM burst ((Tick/Count))
system.mem_ctrls.dram.readRowHits                 334                       # Number of row buffer hits during reads (Count)
system.mem_ctrls.dram.writeRowHits                105                       # Number of row buffer hits during writes (Count)
system.mem_ctrls.dram.readRowHitRate            60.62                       # Row buffer hit rate for reads (Ratio)
system.mem_ctrls.dram.writeRowHitRate           65.22                       # Row buffer hit rate for writes (Ratio)
system.mem_ctrls.dram.bytesPerActivate::samples          266                       # Bytes accessed per row activation (Byte)
system.mem_ctrls.dram.bytesPerActivate::mean   170.105263                       # Bytes accessed per row activation (Byte)
system.mem_ctrls.dram.bytesPerActivate::gmean   124.737829                       # Bytes accessed per row activation (Byte)
system.mem_ctrls.dram.bytesPerActivate::stdev   162.378977                       # Bytes accessed per row activation (Byte)
system.mem_ctrls.dram.bytesPerActivate::0-127          124     46.62%     46.62% # Bytes accessed per row activation (Byte)
system.mem_ctrls.dram.bytesPerActivate::128-255           82     30.83%     77.44% # Bytes accessed per row activation (Byte)
system.mem_ctrls.dram.bytesPerActivate::256-383           31     11.65%     89.10% # Bytes accessed per row activation (Byte)
system.mem_ctrls.dram.bytesPerActivate::384-511           12      4.51%     93.61% # Bytes accessed per row activation (Byte)
system.mem_ctrls.dram.bytesPerActivate::512-639            8      3.01%     96.62% # Bytes accessed per row activation (Byte)
system.mem_ctrls.dram.bytesPerActivate::640-767            5      1.88%     98.50% # Bytes accessed per row activation (Byte)
system.mem_ctrls.dram.bytesPerActivate::768-895            2      0.75%     99.25% # Bytes accessed per row activation (Byte)
system.mem_ctrls.dram.bytesPerActivate::1024-1151            2      0.75%    100.00% # Bytes accessed per row activation (Byte)
system.mem_ctrls.dram.bytesPerActivate::total          266                       # Bytes accessed per row activation (Byte)
system.mem_ctrls.dram.bytesRead                 35264                       # Total bytes read (Byte)
system.mem_ctrls.dram.bytesWritten              10304                       # Total bytes written (Byte)
system.mem_ctrls.dram.avgRdBW             1280.418285                       # Average DRAM read bandwidth in MiBytes/s ((Byte/Second))
system.mem_ctrls.dram.avgWrBW              374.133111                       # Average DRAM write bandwidth in MiBytes/s ((Byte/Second))
system.mem_ctrls.dram.peakBW                 12800.00                       # Theoretical peak bandwidth in MiByte/s ((Byte/Second))
system.mem_ctrls.dram.busUtil                   12.93                       # Data bus utilization in percentage (Ratio)
system.mem_ctrls.dram.busUtilRead               10.00                       # Data bus utilization in percentage for reads (Ratio)
system.mem_ctrls.dram.busUtilWrite               2.92                       # Data bus utilization in percentage for writes (Ratio)
system.mem_ctrls.dram.pageHitRate               61.66                       # Row buffer hit rate, read and write combined (Ratio)
system.mem_ctrls.dram.power_state.pwrStateResidencyTicks::UNDEFINED     27541000                       # Cumulative time (in ticks) in various power states (Tick)
system.mem_ctrls.dram.rank0.actEnergy          942480                       # Energy for activate commands per rank (pJ) (Joule)
system.mem_ctrls.dram.rank0.preEnergy          489555                       # Energy for precharge commands per rank (pJ) (Joule)
system.mem_ctrls.dram.rank0.readEnergy        2070600                       # Energy for read commands per rank (pJ) (Joule)
system.mem_ctrls.dram.rank0.writeEnergy        334080                       # Energy for write commands per rank (pJ) (Joule)
system.mem_ctrls.dram.rank0.refreshEnergy 2458560.000000                       # Energy for refresh commands per rank (pJ) (Joule)
system.mem_ctrls.dram.rank0.actBackEnergy     12418590                       # Energy for active background per rank (pJ) (Joule)
system.mem_ctrls.dram.rank0.preBackEnergy       118080                       # Energy for precharge background per rank (pJ) (Joule)
system.mem_ctrls.dram.rank0.actPowerDownEnergy            0                       # Energy for active power-down per rank (pJ) (Joule)
system.mem_ctrls.dram.rank0.prePowerDownEnergy            0                       # Energy for precharge power-down per rank (pJ) (Joule)
system.mem_ctrls.dram.rank0.selfRefreshEnergy            0                       # Energy for self refresh per rank (pJ) (Joule)
system.mem_ctrls.dram.rank0.totalEnergy      18831945                       # Total energy per rank (pJ) (Joule)
system.mem_ctrls.dram.rank0.averagePower   683.778548                       # Core power per rank (mW) (Watt)
system.mem_ctrls.dram.rank0.totalIdleTime            0                       # Total Idle time Per DRAM Rank (Tick)
system.mem_ctrls.dram.rank0.pwrStateTime::IDLE       196500                       # Time in different power states (Tick)
system.mem_ctrls.dram.rank0.pwrStateTime::REF      1040000                       # Time in different power states (Tick)
system.mem_ctrls.dram.rank0.pwrStateTime::SREF            0                       # Time in different power states (Tick)
system.mem_ctrls.dram.rank0.pwrStateTime::PRE_PDN            0                       # Time in different power states (Tick)
system.mem_ctrls.dram.rank0.pwrStateTime::ACT     26304500                       # Time in different power states (Tick)
system.mem_ctrls.dram.rank0.pwrStateTime::ACT_PDN            0                       # Time in different power states (Tick)
system.mem_ctrls.dram.rank1.actEnergy         1006740                       # Energy for activate commands per rank (pJ) (Joule)
system.mem_ctrls.dram.rank1.preEnergy          519915                       # Energy for precharge commands per rank (pJ) (Joule)
system.mem_ctrls.dram.rank1.readEnergy        1863540                       # Energy for read commands per rank (pJ) (Joule)
system.mem_ctrls.dram.rank1.writeEnergy        506340                       # Energy for write commands per rank (pJ) (Joule)
system.mem_ctrls.dram.rank1.refreshEnergy 2458560.000000                       # Energy for refresh commands per rank (pJ) (Joule)
system.mem_ctrls.dram.rank1.actBackEnergy     12174630                       # Energy for active background per rank (pJ) (Joule)
system.mem_ctrls.dram.rank1.preBackEnergy       323520                       # Energy for precharge background per rank (pJ) (Joule)
system.mem_ctrls.dram.rank1.actPowerDownEnergy            0                       # Energy for active power-down per rank (pJ) (Joule)
system.mem_ctrls.dram.rank1.prePowerDownEnergy            0                       # Energy for precharge power-down per rank (pJ) (Joule)
system.mem_ctrls.dram.rank1.selfRefreshEnergy            0                       # Energy for self refresh per rank (pJ) (Joule)
system.mem_ctrls.dram.rank1.totalEnergy      18853245                       # Total energy per rank (pJ) (Joule)
system.mem_ctrls.dram.rank1.averagePower   684.551941                       # Core power per rank (mW) (Watt)
system.mem_ctrls.dram.rank1.totalIdleTime            0                       # Total Idle time Per DRAM Rank (Tick)
system.mem_ctrls.dram.rank1.pwrStateTime::IDLE       731750                       # Time in different power states (Tick)
system.mem_ctrls.dram.rank1.pwrStateTime::REF      1040000                       # Time in different power states (Tick)
system.mem_ctrls.dram.rank1.pwrStateTime::SREF            0                       # Time in different power states (Tick)
system.mem_ctrls.dram.rank1.pwrStateTime::PRE_PDN            0                       # Time in different power states (Tick)
system.mem_ctrls.dram.rank1.pwrStateTime::ACT     25769250                       # Time in different power states (Tick)
system.mem_ctrls.dram.rank1.pwrStateTime::ACT_PDN            0                       # Time in different power states (Tick)
system.mem_ctrls.power_state.pwrStateResidencyTicks::UNDEFINED     27541000                       # Cumulative time (in ticks) in various power states (Tick)
system.membus.transDist::ReadResp                 529                       # Transaction distribution (Count)
system.membus.transDist::WritebackDirty           170                       # Transaction distribution (Count)
system.membus.transDist::CleanEvict               571                       # Transaction distribution (Count)
system.membus.transDist::ReadExReq                 22                       # Transaction distribution (Count)
system.membus.transDist::ReadExResp                22                       # Transaction distribution (Count)
system.membus.transDist::ReadSharedReq            529                       # Transaction distribution (Count)
system.membus.transDist::InvalidateReq              2                       # Transaction distribution (Count)
system.membus.pktCount_system.l2.mem_side_port::system.mem_ctrls.port         1845                       # Packet count per connected requestor and responder (Count)
system.membus.pktCount::total                    1845                       # Packet count per connected requestor and responder (Count)
system.membus.pktSize_system.l2.mem_side_port::system.mem_ctrls.port        46144                       # Cumulative packet size per connected requestor and responder (Byte)
system.membus.pktSize::total                    46144                       # Cumulative packet size per connected requestor and responder (Byte)
system.membus.snoops                                0                       # Total snoops (Count)
system.membus.snoopTraffic                          0                       # Total snoop traffic (Byte)
system.membus.snoopFanout::samples                553                       # Request fanout histogram (Count)
system.membus.snoopFanout::mean                     0                       # Request fanout histogram (Count)
system.membus.snoopFanout::stdev                    0                       # Request fanout histogram (Count)
system.membus.snoopFanout::underflows               0      0.00%      0.00% # Request fanout histogram (Count)
system.membus.snoopFanout::0                      553    100.00%    100.00% # Request fanout histogram (Count)
system.membus.snoopFanout::1                        0      0.00%    100.00% # Request fanout histogram (Count)
system.membus.snoopFanout::overflows                0      0.00%    100.00% # Request fanout histogram (Count)
system.membus.snoopFanout::min_value                0                       # Request fanout histogram (Count)
system.membus.snoopFanout::max_value                0                       # Request fanout histogram (Count)
system.membus.snoopFanout::total                  553                       # Request fanout histogram (Count)
system.membus.power_state.pwrStateResidencyTicks::UNDEFINED     27541000                       # Cumulative time (in ticks) in various power states (Tick)
system.membus.reqLayer0.occupancy             2115500                       # Layer occupancy (ticks) (Tick)
system.membus.reqLayer0.utilization               0.1                       # Layer utilization (Ratio)
system.membus.respLayer1.occupancy            2956000                       # Layer occupancy (ticks) (Tick)
system.membus.respLayer1.utilization              0.1                       # Layer utilization (Ratio)
system.membus.snoop_filter.totRequests           1294                       # Total number of requests made to the snoop filter. (Count)
system.membus.snoop_filter.hitSingleRequests          741                       # Number of requests hitting in the snoop filter with a single holder of the requested data. (Count)
system.membus.snoop_filter.hitMultiRequests            0                       # Number of requests hitting in the snoop filter with multiple (>1) holders of the requested data. (Count)
system.membus.snoop_filter.totSnoops                0                       # Total number of snoops made to the snoop filter. (Count)
system.membus.snoop_filter.hitSingleSnoops            0                       # Number of snoops hitting in the snoop filter with a single holder of the requested data. (Count)
system.membus.snoop_filter.hitMultiSnoops            0                       # Number of snoops hitting in the snoop filter with multiple (>1) holders of the requested data. (Count)
system.tol2bus.transDist::ReadResp                556                       # Transaction distribution (Count)
system.tol2bus.transDist::WritebackDirty          293                       # Transaction distribution (Count)
system.tol2bus.transDist::WritebackClean          240                       # Transaction distribution (Count)
system.tol2bus.transDist::CleanEvict              794                       # Transaction distribution (Count)
system.tol2bus.transDist::ReadExReq                22                       # Transaction distribution (Count)
system.tol2bus.transDist::ReadExResp               22                       # Transaction distribution (Count)
system.tol2bus.transDist::ReadCleanReq            241                       # Transaction distribution (Count)
system.tol2bus.transDist::ReadSharedReq           313                       # Transaction distribution (Count)
system.tol2bus.transDist::InvalidateReq             2                       # Transaction distribution (Count)
system.tol2bus.transDist::InvalidateResp            2                       # Transaction distribution (Count)
system.tol2bus.pktCount_system.cpu.icache.mem_side_port::system.l2.cpu_side_port          721                       # Packet count per connected requestor and responder (Count)
system.tol2bus.pktCount_system.cpu.dcache.mem_side_port::system.l2.cpu_side_port         1017                       # Packet count per connected requestor and responder (Count)
system.tol2bus.pktCount::total                   1738                       # Packet count per connected requestor and responder (Count)
system.tol2bus.pktSize_system.cpu.icache.mem_side_port::system.l2.cpu_side_port        30720                       # Cumulative packet size per connected requestor and responder (Byte)
system.tol2bus.pktSize_system.cpu.dcache.mem_side_port::system.l2.cpu_side_port        29504                       # Cumulative packet size per connected requestor and responder (Byte)
system.tol2bus.pktSize::total                   60224                       # Cumulative packet size per connected requestor and responder (Byte)
system.tol2bus.snoops                             747                       # Total snoops (Count)
system.tol2bus.snoopTraffic                     10880                       # Total snoop traffic (Byte)
system.tol2bus.snoopFanout::samples              1325                       # Request fanout histogram (Count)
system.tol2bus.snoopFanout::mean             0.006792                       # Request fanout histogram (Count)
system.tol2bus.snoopFanout::stdev            0.082167                       # Request fanout histogram (Count)
system.tol2bus.snoopFanout::underflows              0      0.00%      0.00% # Request fanout histogram (Count)
system.tol2bus.snoopFanout::0                    1316     99.32%     99.32% # Request fanout histogram (Count)
system.tol2bus.snoopFanout::1                       9      0.68%    100.00% # Request fanout histogram (Count)
system.tol2bus.snoopFanout::2                       0      0.00%    100.00% # Request fanout histogram (Count)
system.tol2bus.snoopFanout::overflows               0      0.00%    100.00% # Request fanout histogram (Count)
system.tol2bus.snoopFanout::min_value               0                       # Request fanout histogram (Count)
system.tol2bus.snoopFanout::max_value               1                       # Request fanout histogram (Count)
system.tol2bus.snoopFanout::total                1325                       # Request fanout histogram (Count)
system.tol2bus.power_state.pwrStateResidencyTicks::UNDEFINED     27541000                       # Cumulative time (in ticks) in various power states (Tick)
system.tol2bus.reqLayer0.occupancy             942000                       # Layer occupancy (ticks) (Tick)
system.tol2bus.reqLayer0.utilization              0.0                       # Layer utilization (Ratio)
system.tol2bus.respLayer0.occupancy            360000                       # Layer occupancy (ticks) (Tick)
system.tol2bus.respLayer0.utilization             0.0                       # Layer utilization (Ratio)
system.tol2bus.respLayer1.occupancy            508000                       # Layer occupancy (ticks) (Tick)
system.tol2bus.respLayer1.utilization             0.0                       # Layer utilization (Ratio)
system.tol2bus.snoop_filter.totRequests          1158                       # Total number of requests made to the snoop filter. (Count)
system.tol2bus.snoop_filter.hitSingleRequests          580                       # Number of requests hitting in the snoop filter with a single holder of the requested data. (Count)
system.tol2bus.snoop_filter.hitMultiRequests            0                       # Number of requests hitting in the snoop filter with multiple (>1) holders of the requested data. (Count)
system.tol2bus.snoop_filter.totSnoops               9                       # Total number of snoops made to the snoop filter. (Count)
system.tol2bus.snoop_filter.hitSingleSnoops            9                       # Number of snoops hitting in the snoop filter with a single holder of the requested data. (Count)
system.tol2bus.snoop_filter.hitMultiSnoops            0                       # Number of snoops hitting in the snoop filter with multiple (>1) holders of the requested data. (Count)
system.voltage_domain.voltage                       1                       # Voltage in Volts (Volt)
system.workload.inst.arm                            0                       # number of arm instructions executed (Count)
system.workload.inst.quiesce                        0                       # number of quiesce instructions executed (Count)

---------- End Simulation Statistics   ----------
