
---------- Begin Simulation Statistics ----------
simSeconds                                   0.005338                       # Number of seconds simulated (Second)
simTicks                                   5338295000                       # Number of ticks simulated (Tick)
finalTick                                  5338295000                       # Number of ticks from beginning of simulation (restored from checkpoints and never reset) (Tick)
simFreq                                  1000000000000                       # The number of ticks per simulated second ((Tick/Second))
hostSeconds                                     75.30                       # Real time elapsed on the host (Second)
hostTickRate                                 70890850                       # The number of ticks simulated per host second (ticks/s) ((Tick/Second))
hostMemory                                     681140                       # Number of bytes of host memory used (Byte)
simInsts                                     22664010                       # Number of instructions simulated (Count)
simOps                                       26967804                       # Number of ops (including micro ops) simulated (Count)
hostInstRate                                   300970                       # Simulator instruction rate (inst/s) ((Count/Second))
hostOpRate                                     358123                       # Simulator op (including micro ops) rate (op/s) ((Count/Second))
system.clk_domain.clock                          1000                       # Clock period in ticks (Tick)
system.cpu.numCycles                         10676591                       # Number of cpu cycles simulated (Cycle)
system.cpu.numWorkItemsStarted                      0                       # Number of work items this cpu started (Count)
system.cpu.numWorkItemsCompleted                    0                       # Number of work items this cpu completed (Count)
system.cpu.instsAdded                        27552513                       # Number of instructions added to the IQ (excludes non-spec) (Count)
system.cpu.nonSpecInstsAdded                      386                       # Number of non-speculative instructions added to the IQ (Count)
system.cpu.instsIssued                       27357686                       # Number of instructions issued (Count)
system.cpu.squashedInstsIssued                   2040                       # Number of squashed instructions issued (Count)
system.cpu.squashedInstsExamined               585094                       # Number of squashed instructions iterated over during squash; mainly for profiling (Count)
system.cpu.squashedOperandsExamined            490399                       # Number of squashed operands that are examined and possibly removed from graph (Count)
system.cpu.squashedNonSpecRemoved                 126                       # Number of squashed non-spec instructions that were removed (Count)
system.cpu.numIssuedDist::samples            10529575                       # Number of insts issued each cycle (Count)
system.cpu.numIssuedDist::mean               2.598176                       # Number of insts issued each cycle (Count)
system.cpu.numIssuedDist::stdev              2.971088                       # Number of insts issued each cycle (Count)
system.cpu.numIssuedDist::underflows                0      0.00%      0.00% # Number of insts issued each cycle (Count)
system.cpu.numIssuedDist::0                   4942028     46.93%     46.93% # Number of insts issued each cycle (Count)
system.cpu.numIssuedDist::1                    655876      6.23%     53.16% # Number of insts issued each cycle (Count)
system.cpu.numIssuedDist::2                    547236      5.20%     58.36% # Number of insts issued each cycle (Count)
system.cpu.numIssuedDist::3                    499484      4.74%     63.10% # Number of insts issued each cycle (Count)
system.cpu.numIssuedDist::4                    528544      5.02%     68.12% # Number of insts issued each cycle (Count)
system.cpu.numIssuedDist::5                    687117      6.53%     74.65% # Number of insts issued each cycle (Count)
system.cpu.numIssuedDist::6                   1073496     10.20%     84.84% # Number of insts issued each cycle (Count)
system.cpu.numIssuedDist::7                    648203      6.16%     91.00% # Number of insts issued each cycle (Count)
system.cpu.numIssuedDist::8                    947591      9.00%    100.00% # Number of insts issued each cycle (Count)
system.cpu.numIssuedDist::overflows                 0      0.00%    100.00% # Number of insts issued each cycle (Count)
system.cpu.numIssuedDist::min_value                 0                       # Number of insts issued each cycle (Count)
system.cpu.numIssuedDist::max_value                 8                       # Number of insts issued each cycle (Count)
system.cpu.numIssuedDist::total              10529575                       # Number of insts issued each cycle (Count)
system.cpu.statFuBusy::No_OpClass                   0      0.00%      0.00% # attempts to use FU when none available (Count)
system.cpu.statFuBusy::IntAlu                   20106     13.88%     13.88% # attempts to use FU when none available (Count)
system.cpu.statFuBusy::IntMult                   1785      1.23%     15.11% # attempts to use FU when none available (Count)
system.cpu.statFuBusy::IntDiv                    1192      0.82%     15.94% # attempts to use FU when none available (Count)
system.cpu.statFuBusy::FloatAdd                     0      0.00%     15.94% # attempts to use FU when none available (Count)
system.cpu.statFuBusy::FloatCmp                     0      0.00%     15.94% # attempts to use FU when none available (Count)
system.cpu.statFuBusy::FloatCvt                     0      0.00%     15.94% # attempts to use FU when none available (Count)
system.cpu.statFuBusy::FloatMult                    0      0.00%     15.94% # attempts to use FU when none available (Count)
system.cpu.statFuBusy::FloatMultAcc                 0      0.00%     15.94% # attempts to use FU when none available (Count)
system.cpu.statFuBusy::FloatDiv                     0      0.00%     15.94% # attempts to use FU when none available (Count)
system.cpu.statFuBusy::FloatMisc                    0      0.00%     15.94% # attempts to use FU when none available (Count)
system.cpu.statFuBusy::FloatSqrt                    0      0.00%     15.94% # attempts to use FU when none available (Count)
system.cpu.statFuBusy::SimdAdd                   1280      0.88%     16.82% # attempts to use FU when none available (Count)
system.cpu.statFuBusy::SimdAddAcc                   0      0.00%     16.82% # attempts to use FU when none available (Count)
system.cpu.statFuBusy::SimdAlu                  26267     18.13%     34.95% # attempts to use FU when none available (Count)
system.cpu.statFuBusy::SimdCmp                     17      0.01%     34.97% # attempts to use FU when none available (Count)
system.cpu.statFuBusy::SimdCvt                      0      0.00%     34.97% # attempts to use FU when none available (Count)
system.cpu.statFuBusy::SimdMisc                    39      0.03%     34.99% # attempts to use FU when none available (Count)
system.cpu.statFuBusy::SimdMult                     0      0.00%     34.99% # attempts to use FU when none available (Count)
system.cpu.statFuBusy::SimdMultAcc                  0      0.00%     34.99% # attempts to use FU when none available (Count)
system.cpu.statFuBusy::SimdShift                    0      0.00%     34.99% # attempts to use FU when none available (Count)
system.cpu.statFuBusy::SimdShiftAcc                 0      0.00%     34.99% # attempts to use FU when none available (Count)
system.cpu.statFuBusy::SimdDiv                      0      0.00%     34.99% # attempts to use FU when none available (Count)
system.cpu.statFuBusy::SimdSqrt                     0      0.00%     34.99% # attempts to use FU when none available (Count)
system.cpu.statFuBusy::SimdFloatAdd                 0      0.00%     34.99% # attempts to use FU when none available (Count)
system.cpu.statFuBusy::SimdFloatAlu                 0      0.00%     34.99% # attempts to use FU when none available (Count)
system.cpu.statFuBusy::SimdFloatCmp                 0      0.00%     34.99% # attempts to use FU when none available (Count)
system.cpu.statFuBusy::SimdFloatCvt                 0      0.00%     34.99% # attempts to use FU when none available (Count)
system.cpu.statFuBusy::SimdFloatDiv                 0      0.00%     34.99% # attempts to use FU when none available (Count)
system.cpu.statFuBusy::SimdFloatMisc                0      0.00%     34.99% # attempts to use FU when none available (Count)
system.cpu.statFuBusy::SimdFloatMult                0      0.00%     34.99% # attempts to use FU when none available (Count)
system.cpu.statFuBusy::SimdFloatMultAcc             0      0.00%     34.99% # attempts to use FU when none available (Count)
system.cpu.statFuBusy::SimdFloatSqrt                0      0.00%     34.99% # attempts to use FU when none available (Count)
system.cpu.statFuBusy::SimdReduceAdd                0      0.00%     34.99% # attempts to use FU when none available (Count)
system.cpu.statFuBusy::SimdReduceAlu                0      0.00%     34.99% # attempts to use FU when none available (Count)
system.cpu.statFuBusy::SimdReduceCmp                0      0.00%     34.99% # attempts to use FU when none available (Count)
system.cpu.statFuBusy::SimdFloatReduceAdd            0      0.00%     34.99% # attempts to use FU when none available (Count)
system.cpu.statFuBusy::SimdFloatReduceCmp            0      0.00%     34.99% # attempts to use FU when none available (Count)
system.cpu.statFuBusy::SimdAes                      0      0.00%     34.99% # attempts to use FU when none available (Count)
system.cpu.statFuBusy::SimdAesMix                   0      0.00%     34.99% # attempts to use FU when none available (Count)
system.cpu.statFuBusy::SimdSha1Hash                 0      0.00%     34.99% # attempts to use FU when none available (Count)
system.cpu.statFuBusy::SimdSha1Hash2                0      0.00%     34.99% # attempts to use FU when none available (Count)
system.cpu.statFuBusy::SimdSha256Hash               0      0.00%     34.99% # attempts to use FU when none available (Count)
system.cpu.statFuBusy::SimdSha256Hash2              0      0.00%     34.99% # attempts to use FU when none available (Count)
system.cpu.statFuBusy::SimdShaSigma2                0      0.00%     34.99% # attempts to use FU when none available (Count)
system.cpu.statFuBusy::SimdShaSigma3                0      0.00%     34.99% # attempts to use FU when none available (Count)
system.cpu.statFuBusy::SimdPredAlu                  0      0.00%     34.99% # attempts to use FU when none available (Count)
system.cpu.statFuBusy::MemRead                  79151     54.64%     89.64% # attempts to use FU when none available (Count)
system.cpu.statFuBusy::MemWrite                 15011     10.36%    100.00% # attempts to use FU when none available (Count)
system.cpu.statFuBusy::FloatMemRead                 0      0.00%    100.00% # attempts to use FU when none available (Count)
system.cpu.statFuBusy::FloatMemWrite                0      0.00%    100.00% # attempts to use FU when none available (Count)
system.cpu.statFuBusy::IprAccess                    0      0.00%    100.00% # attempts to use FU when none available (Count)
system.cpu.statFuBusy::InstPrefetch                 0      0.00%    100.00% # attempts to use FU when none available (Count)
system.cpu.statIssuedInstType_0::No_OpClass      1614263      5.90%      5.90% # Number of instructions issued per FU type, per thread (Count)
system.cpu.statIssuedInstType_0::IntAlu       8880696     32.46%     38.36% # Number of instructions issued per FU type, per thread (Count)
system.cpu.statIssuedInstType_0::IntMult       549032      2.01%     40.37% # Number of instructions issued per FU type, per thread (Count)
system.cpu.statIssuedInstType_0::IntDiv          2710      0.01%     40.38% # Number of instructions issued per FU type, per thread (Count)
system.cpu.statIssuedInstType_0::FloatAdd            0      0.00%     40.38% # Number of instructions issued per FU type, per thread (Count)
system.cpu.statIssuedInstType_0::FloatCmp            0      0.00%     40.38% # Number of instructions issued per FU type, per thread (Count)
system.cpu.statIssuedInstType_0::FloatCvt            0      0.00%     40.38% # Number of instructions issued per FU type, per thread (Count)
system.cpu.statIssuedInstType_0::FloatMult            0      0.00%     40.38% # Number of instructions issued per FU type, per thread (Count)
system.cpu.statIssuedInstType_0::FloatMultAcc            0      0.00%     40.38% # Number of instructions issued per FU type, per thread (Count)
system.cpu.statIssuedInstType_0::FloatDiv            0      0.00%     40.38% # Number of instructions issued per FU type, per thread (Count)
system.cpu.statIssuedInstType_0::FloatMisc            2      0.00%     40.38% # Number of instructions issued per FU type, per thread (Count)
system.cpu.statIssuedInstType_0::FloatSqrt            0      0.00%     40.38% # Number of instructions issued per FU type, per thread (Count)
system.cpu.statIssuedInstType_0::SimdAdd      3097882     11.32%     51.70% # Number of instructions issued per FU type, per thread (Count)
system.cpu.statIssuedInstType_0::SimdAddAcc            0      0.00%     51.70% # Number of instructions issued per FU type, per thread (Count)
system.cpu.statIssuedInstType_0::SimdAlu      5270312     19.26%     70.97% # Number of instructions issued per FU type, per thread (Count)
system.cpu.statIssuedInstType_0::SimdCmp          125      0.00%     70.97% # Number of instructions issued per FU type, per thread (Count)
system.cpu.statIssuedInstType_0::SimdCvt            0      0.00%     70.97% # Number of instructions issued per FU type, per thread (Count)
system.cpu.statIssuedInstType_0::SimdMisc      2143999      7.84%     78.80% # Number of instructions issued per FU type, per thread (Count)
system.cpu.statIssuedInstType_0::SimdMult            0      0.00%     78.80% # Number of instructions issued per FU type, per thread (Count)
system.cpu.statIssuedInstType_0::SimdMultAcc            0      0.00%     78.80% # Number of instructions issued per FU type, per thread (Count)
system.cpu.statIssuedInstType_0::SimdShift            0      0.00%     78.80% # Number of instructions issued per FU type, per thread (Count)
system.cpu.statIssuedInstType_0::SimdShiftAcc            0      0.00%     78.80% # Number of instructions issued per FU type, per thread (Count)
system.cpu.statIssuedInstType_0::SimdDiv            0      0.00%     78.80% # Number of instructions issued per FU type, per thread (Count)
system.cpu.statIssuedInstType_0::SimdSqrt            0      0.00%     78.80% # Number of instructions issued per FU type, per thread (Count)
system.cpu.statIssuedInstType_0::SimdFloatAdd            0      0.00%     78.80% # Number of instructions issued per FU type, per thread (Count)
system.cpu.statIssuedInstType_0::SimdFloatAlu            0      0.00%     78.80% # Number of instructions issued per FU type, per thread (Count)
system.cpu.statIssuedInstType_0::SimdFloatCmp            0      0.00%     78.80% # Number of instructions issued per FU type, per thread (Count)
system.cpu.statIssuedInstType_0::SimdFloatCvt            0      0.00%     78.80% # Number of instructions issued per FU type, per thread (Count)
system.cpu.statIssuedInstType_0::SimdFloatDiv            0      0.00%     78.80% # Number of instructions issued per FU type, per thread (Count)
system.cpu.statIssuedInstType_0::SimdFloatMisc            0      0.00%     78.80% # Number of instructions issued per FU type, per thread (Count)
system.cpu.statIssuedInstType_0::SimdFloatMult            0      0.00%     78.80% # Number of instructions issued per FU type, per thread (Count)
system.cpu.statIssuedInstType_0::SimdFloatMultAcc            0      0.00%     78.80% # Number of instructions issued per FU type, per thread (Count)
system.cpu.statIssuedInstType_0::SimdFloatSqrt            0      0.00%     78.80% # Number of instructions issued per FU type, per thread (Count)
system.cpu.statIssuedInstType_0::SimdReduceAdd            0      0.00%     78.80% # Number of instructions issued per FU type, per thread (Count)
system.cpu.statIssuedInstType_0::SimdReduceAlu            0      0.00%     78.80% # Number of instructions issued per FU type, per thread (Count)
system.cpu.statIssuedInstType_0::SimdReduceCmp            0      0.00%     78.80% # Number of instructions issued per FU type, per thread (Count)
system.cpu.statIssuedInstType_0::SimdFloatReduceAdd            0      0.00%     78.80% # Number of instructions issued per FU type, per thread (Count)
system.cpu.statIssuedInstType_0::SimdFloatReduceCmp            0      0.00%     78.80% # Number of instructions issued per FU type, per thread (Count)
system.cpu.statIssuedInstType_0::SimdAes            0      0.00%     78.80% # Number of instructions issued per FU type, per thread (Count)
system.cpu.statIssuedInstType_0::SimdAesMix            0      0.00%     78.80% # Number of instructions issued per FU type, per thread (Count)
system.cpu.statIssuedInstType_0::SimdSha1Hash            0      0.00%     78.80% # Number of instructions issued per FU type, per thread (Count)
system.cpu.statIssuedInstType_0::SimdSha1Hash2            0      0.00%     78.80% # Number of instructions issued per FU type, per thread (Count)
system.cpu.statIssuedInstType_0::SimdSha256Hash            0      0.00%     78.80% # Number of instructions issued per FU type, per thread (Count)
system.cpu.statIssuedInstType_0::SimdSha256Hash2            0      0.00%     78.80% # Number of instructions issued per FU type, per thread (Count)
system.cpu.statIssuedInstType_0::SimdShaSigma2            0      0.00%     78.80% # Number of instructions issued per FU type, per thread (Count)
system.cpu.statIssuedInstType_0::SimdShaSigma3            0      0.00%     78.80% # Number of instructions issued per FU type, per thread (Count)
system.cpu.statIssuedInstType_0::SimdPredAlu            0      0.00%     78.80% # Number of instructions issued per FU type, per thread (Count)
system.cpu.statIssuedInstType_0::MemRead      5041239     18.43%     97.23% # Number of instructions issued per FU type, per thread (Count)
system.cpu.statIssuedInstType_0::MemWrite       757426      2.77%    100.00% # Number of instructions issued per FU type, per thread (Count)
system.cpu.statIssuedInstType_0::FloatMemRead            0      0.00%    100.00% # Number of instructions issued per FU type, per thread (Count)
system.cpu.statIssuedInstType_0::FloatMemWrite            0      0.00%    100.00% # Number of instructions issued per FU type, per thread (Count)
system.cpu.statIssuedInstType_0::IprAccess            0      0.00%    100.00% # Number of instructions issued per FU type, per thread (Count)
system.cpu.statIssuedInstType_0::InstPrefetch            0      0.00%    100.00% # Number of instructions issued per FU type, per thread (Count)
system.cpu.statIssuedInstType_0::total       27357686                       # Number of instructions issued per FU type, per thread (Count)
system.cpu.issueRate                         2.562399                       # Inst issue rate ((Count/Cycle))
system.cpu.fuBusy                              144848                       # FU busy when requested (Count)
system.cpu.fuBusyRate                        0.005295                       # FU busy rate (busy events/executed inst) ((Count/Count))
system.cpu.intInstQueueReads                 34592160                       # Number of integer instruction queue reads (Count)
system.cpu.intInstQueueWrites                12745819                       # Number of integer instruction queue writes (Count)
system.cpu.intInstQueueWakeupAccesses        11906279                       # Number of integer instruction queue wakeup accesses (Count)
system.cpu.fpInstQueueReads                         0                       # Number of floating instruction queue reads (Count)
system.cpu.fpInstQueueWrites                        0                       # Number of floating instruction queue writes (Count)
system.cpu.fpInstQueueWakeupAccesses                0                       # Number of floating instruction queue wakeup accesses (Count)
system.cpu.vecInstQueueReads                 30799675                       # Number of vector instruction queue reads (Count)
system.cpu.vecInstQueueWrites                15392306                       # Number of vector instruction queue writes (Count)
system.cpu.vecInstQueueWakeupAccesses        15355612                       # Number of vector instruction queue wakeup accesses (Count)
system.cpu.intAluAccesses                    12061349                       # Number of integer alu accesses (Count)
system.cpu.fpAluAccesses                            0                       # Number of floating point alu accesses (Count)
system.cpu.vecAluAccesses                    13826922                       # Number of vector alu accesses (Count)
system.cpu.numInsts                          27331322                       # Number of executed instructions (Count)
system.cpu.numLoadInsts                       5027386                       # Number of load instructions executed (Count)
system.cpu.numSquashedInsts                     26364                       # Number of squashed instructions skipped in execute (Count)
system.cpu.numSwp                                   0                       # Number of swp insts executed (Count)
system.cpu.numNop                                 436                       # Number of nop insts executed (Count)
system.cpu.numRefs                            5783011                       # Number of memory reference insts executed (Count)
system.cpu.numBranches                        1434942                       # Number of branches executed (Count)
system.cpu.numStoreInsts                       755625                       # Number of stores executed (Count)
system.cpu.numRate                           2.559930                       # Inst execution rate ((Count/Cycle))
system.cpu.timesIdled                            1521                       # Number of times that the entire CPU went into an idle state and unscheduled itself (Count)
system.cpu.idleCycles                          147016                       # Total number of cycles that the CPU has spent unscheduled due to idling (Cycle)
system.cpu.committedInsts                    22664010                       # Number of Instructions Simulated (Count)
system.cpu.committedOps                      26967804                       # Number of Ops (including micro ops) Simulated (Count)
system.cpu.cpi                               0.471081                       # CPI: Cycles Per Instruction ((Cycle/Count))
system.cpu.totalCpi                          0.471081                       # CPI: Total CPI of All Threads ((Cycle/Count))
system.cpu.ipc                               2.122776                       # IPC: Instructions Per Cycle ((Count/Cycle))
system.cpu.totalIpc                          2.122776                       # IPC: Total IPC of All Threads ((Count/Cycle))
system.cpu.intRegfileReads                   21606940                       # Number of integer regfile reads (Count)
system.cpu.intRegfileWrites                  10594934                       # Number of integer regfile writes (Count)
system.cpu.vecRegfileReads                   37484885                       # number of vector regfile reads (Count)
system.cpu.ccRegfileReads                     4069869                       # number of cc regfile reads (Count)
system.cpu.ccRegfileWrites                    4065276                       # number of cc regfile writes (Count)
system.cpu.miscRegfileReads                  27750773                       # number of misc regfile reads (Count)
system.cpu.miscRegfileWrites                      201                       # number of misc regfile writes (Count)
system.cpu.MemDepUnit__0.insertedLoads        5024773                       # Number of loads inserted to the mem dependence unit. (Count)
system.cpu.MemDepUnit__0.insertedStores        763436                       # Number of stores inserted to the mem dependence unit. (Count)
system.cpu.MemDepUnit__0.conflictingLoads       268489                       # Number of conflicting loads. (Count)
system.cpu.MemDepUnit__0.conflictingStores        55451                       # Number of conflicting stores. (Count)
system.cpu.MemDepUnit__1.insertedLoads              0                       # Number of loads inserted to the mem dependence unit. (Count)
system.cpu.MemDepUnit__1.insertedStores             0                       # Number of stores inserted to the mem dependence unit. (Count)
system.cpu.MemDepUnit__1.conflictingLoads            0                       # Number of conflicting loads. (Count)
system.cpu.MemDepUnit__1.conflictingStores            0                       # Number of conflicting stores. (Count)
system.cpu.MemDepUnit__2.insertedLoads              0                       # Number of loads inserted to the mem dependence unit. (Count)
system.cpu.MemDepUnit__2.insertedStores             0                       # Number of stores inserted to the mem dependence unit. (Count)
system.cpu.MemDepUnit__2.conflictingLoads            0                       # Number of conflicting loads. (Count)
system.cpu.MemDepUnit__2.conflictingStores            0                       # Number of conflicting stores. (Count)
system.cpu.MemDepUnit__3.insertedLoads              0                       # Number of loads inserted to the mem dependence unit. (Count)
system.cpu.MemDepUnit__3.insertedStores             0                       # Number of stores inserted to the mem dependence unit. (Count)
system.cpu.MemDepUnit__3.conflictingLoads            0                       # Number of conflicting loads. (Count)
system.cpu.MemDepUnit__3.conflictingStores            0                       # Number of conflicting stores. (Count)
system.cpu.branchPred.lookups                 1560380                       # Number of BP lookups (Count)
system.cpu.branchPred.condPredicted           1460759                       # Number of conditional branches predicted (Count)
system.cpu.branchPred.condIncorrect             17191                       # Number of conditional branches incorrect (Count)
system.cpu.branchPred.BTBLookups               307878                       # Number of BTB lookups (Count)
system.cpu.branchPred.BTBUpdates                 9579                       # Number of BTB updates (Count)
system.cpu.branchPred.BTBHits                  304077                       # Number of BTB hits (Count)
system.cpu.branchPred.BTBHitRatio            0.987654                       # BTB Hit Ratio (Ratio)
system.cpu.branchPred.RASUsed                   17576                       # Number of times the RAS was used to get a target. (Count)
system.cpu.branchPred.RASIncorrect                 40                       # Number of incorrect RAS predictions. (Count)
system.cpu.branchPred.indirectLookups            6663                       # Number of indirect predictor lookups. (Count)
system.cpu.branchPred.indirectHits               1345                       # Number of indirect target hits. (Count)
system.cpu.branchPred.indirectMisses             5318                       # Number of indirect misses. (Count)
system.cpu.branchPred.indirectMispredicted          665                       # Number of mispredicted indirect branches. (Count)
system.cpu.commit.commitSquashedInsts          582150                       # The number of squashed insts skipped by commit (Count)
system.cpu.commit.commitNonSpecStalls             260                       # The number of times commit has been forced to stall to communicate backwards (Count)
system.cpu.commit.branchMispredicts             17112                       # The number of times a branch was mispredicted (Count)
system.cpu.commit.numCommittedDist::samples     10438254                       # Number of insts commited each cycle (Count)
system.cpu.commit.numCommittedDist::mean     2.583566                       # Number of insts commited each cycle (Count)
system.cpu.commit.numCommittedDist::stdev     3.430023                       # Number of insts commited each cycle (Count)
system.cpu.commit.numCommittedDist::underflows            0      0.00%      0.00% # Number of insts commited each cycle (Count)
system.cpu.commit.numCommittedDist::0         5287509     50.66%     50.66% # Number of insts commited each cycle (Count)
system.cpu.commit.numCommittedDist::1         1376880     13.19%     63.85% # Number of insts commited each cycle (Count)
system.cpu.commit.numCommittedDist::2          418413      4.01%     67.85% # Number of insts commited each cycle (Count)
system.cpu.commit.numCommittedDist::3           90685      0.87%     68.72% # Number of insts commited each cycle (Count)
system.cpu.commit.numCommittedDist::4          304874      2.92%     71.64% # Number of insts commited each cycle (Count)
system.cpu.commit.numCommittedDist::5           58093      0.56%     72.20% # Number of insts commited each cycle (Count)
system.cpu.commit.numCommittedDist::6          100447      0.96%     73.16% # Number of insts commited each cycle (Count)
system.cpu.commit.numCommittedDist::7           41306      0.40%     73.56% # Number of insts commited each cycle (Count)
system.cpu.commit.numCommittedDist::8         2760047     26.44%    100.00% # Number of insts commited each cycle (Count)
system.cpu.commit.numCommittedDist::overflows            0      0.00%    100.00% # Number of insts commited each cycle (Count)
system.cpu.commit.numCommittedDist::min_value            0                       # Number of insts commited each cycle (Count)
system.cpu.commit.numCommittedDist::max_value            8                       # Number of insts commited each cycle (Count)
system.cpu.commit.numCommittedDist::total     10438254                       # Number of insts commited each cycle (Count)
system.cpu.commit.instsCommitted             22664128                       # Number of instructions committed (Count)
system.cpu.commit.opsCommitted               26967922                       # Number of ops (including micro ops) committed (Count)
system.cpu.commit.memRefs                     5638275                       # Number of memory references committed (Count)
system.cpu.commit.loads                       4912120                       # Number of loads committed (Count)
system.cpu.commit.amos                            100                       # Number of atomic instructions committed (Count)
system.cpu.commit.membars                         108                       # Number of memory barriers committed (Count)
system.cpu.commit.branches                    1385311                       # Number of branches committed (Count)
system.cpu.commit.vectorInstructions         15353786                       # Number of committed Vector instructions. (Count)
system.cpu.commit.floating                          0                       # Number of committed floating point instructions. (Count)
system.cpu.commit.integer                    15917806                       # Number of committed integer instructions. (Count)
system.cpu.commit.functionCalls                 10998                       # Number of function calls committed. (Count)
system.cpu.commit.committedInstType_0::No_OpClass      1613212      5.98%      5.98% # Class of committed instruction (Count)
system.cpu.commit.committedInstType_0::IntAlu      8654458     32.09%     38.07% # Class of committed instruction (Count)
system.cpu.commit.committedInstType_0::IntMult       547492      2.03%     40.10% # Class of committed instruction (Count)
system.cpu.commit.committedInstType_0::IntDiv         2565      0.01%     40.11% # Class of committed instruction (Count)
system.cpu.commit.committedInstType_0::FloatAdd            0      0.00%     40.11% # Class of committed instruction (Count)
system.cpu.commit.committedInstType_0::FloatCmp            0      0.00%     40.11% # Class of committed instruction (Count)
system.cpu.commit.committedInstType_0::FloatCvt            0      0.00%     40.11% # Class of committed instruction (Count)
system.cpu.commit.committedInstType_0::FloatMult            0      0.00%     40.11% # Class of committed instruction (Count)
system.cpu.commit.committedInstType_0::FloatMultAcc            0      0.00%     40.11% # Class of committed instruction (Count)
system.cpu.commit.committedInstType_0::FloatDiv            0      0.00%     40.11% # Class of committed instruction (Count)
system.cpu.commit.committedInstType_0::FloatMisc            2      0.00%     40.11% # Class of committed instruction (Count)
system.cpu.commit.committedInstType_0::FloatSqrt            0      0.00%     40.11% # Class of committed instruction (Count)
system.cpu.commit.committedInstType_0::SimdAdd      3097807     11.49%     51.60% # Class of committed instruction (Count)
system.cpu.commit.committedInstType_0::SimdAddAcc            0      0.00%     51.60% # Class of committed instruction (Count)
system.cpu.commit.committedInstType_0::SimdAlu      5270089     19.54%     71.14% # Class of committed instruction (Count)
system.cpu.commit.committedInstType_0::SimdCmp           97      0.00%     71.14% # Class of committed instruction (Count)
system.cpu.commit.committedInstType_0::SimdCvt            0      0.00%     71.14% # Class of committed instruction (Count)
system.cpu.commit.committedInstType_0::SimdMisc      2143925      7.95%     79.09% # Class of committed instruction (Count)
system.cpu.commit.committedInstType_0::SimdMult            0      0.00%     79.09% # Class of committed instruction (Count)
system.cpu.commit.committedInstType_0::SimdMultAcc            0      0.00%     79.09% # Class of committed instruction (Count)
system.cpu.commit.committedInstType_0::SimdShift            0      0.00%     79.09% # Class of committed instruction (Count)
system.cpu.commit.committedInstType_0::SimdShiftAcc            0      0.00%     79.09% # Class of committed instruction (Count)
system.cpu.commit.committedInstType_0::SimdDiv            0      0.00%     79.09% # Class of committed instruction (Count)
system.cpu.commit.committedInstType_0::SimdSqrt            0      0.00%     79.09% # Class of committed instruction (Count)
system.cpu.commit.committedInstType_0::SimdFloatAdd            0      0.00%     79.09% # Class of committed instruction (Count)
system.cpu.commit.committedInstType_0::SimdFloatAlu            0      0.00%     79.09% # Class of committed instruction (Count)
system.cpu.commit.committedInstType_0::SimdFloatCmp            0      0.00%     79.09% # Class of committed instruction (Count)
system.cpu.commit.committedInstType_0::SimdFloatCvt            0      0.00%     79.09% # Class of committed instruction (Count)
system.cpu.commit.committedInstType_0::SimdFloatDiv            0      0.00%     79.09% # Class of committed instruction (Count)
system.cpu.commit.committedInstType_0::SimdFloatMisc            0      0.00%     79.09% # Class of committed instruction (Count)
system.cpu.commit.committedInstType_0::SimdFloatMult            0      0.00%     79.09% # Class of committed instruction (Count)
system.cpu.commit.committedInstType_0::SimdFloatMultAcc            0      0.00%     79.09% # Class of committed instruction (Count)
system.cpu.commit.committedInstType_0::SimdFloatSqrt            0      0.00%     79.09% # Class of committed instruction (Count)
system.cpu.commit.committedInstType_0::SimdReduceAdd            0      0.00%     79.09% # Class of committed instruction (Count)
system.cpu.commit.committedInstType_0::SimdReduceAlu            0      0.00%     79.09% # Class of committed instruction (Count)
system.cpu.commit.committedInstType_0::SimdReduceCmp            0      0.00%     79.09% # Class of committed instruction (Count)
system.cpu.commit.committedInstType_0::SimdFloatReduceAdd            0      0.00%     79.09% # Class of committed instruction (Count)
system.cpu.commit.committedInstType_0::SimdFloatReduceCmp            0      0.00%     79.09% # Class of committed instruction (Count)
system.cpu.commit.committedInstType_0::SimdAes            0      0.00%     79.09% # Class of committed instruction (Count)
system.cpu.commit.committedInstType_0::SimdAesMix            0      0.00%     79.09% # Class of committed instruction (Count)
system.cpu.commit.committedInstType_0::SimdSha1Hash            0      0.00%     79.09% # Class of committed instruction (Count)
system.cpu.commit.committedInstType_0::SimdSha1Hash2            0      0.00%     79.09% # Class of committed instruction (Count)
system.cpu.commit.committedInstType_0::SimdSha256Hash            0      0.00%     79.09% # Class of committed instruction (Count)
system.cpu.commit.committedInstType_0::SimdSha256Hash2            0      0.00%     79.09% # Class of committed instruction (Count)
system.cpu.commit.committedInstType_0::SimdShaSigma2            0      0.00%     79.09% # Class of committed instruction (Count)
system.cpu.commit.committedInstType_0::SimdShaSigma3            0      0.00%     79.09% # Class of committed instruction (Count)
system.cpu.commit.committedInstType_0::SimdPredAlu            0      0.00%     79.09% # Class of committed instruction (Count)
system.cpu.commit.committedInstType_0::MemRead      4912120     18.21%     97.31% # Class of committed instruction (Count)
system.cpu.commit.committedInstType_0::MemWrite       726155      2.69%    100.00% # Class of committed instruction (Count)
system.cpu.commit.committedInstType_0::FloatMemRead            0      0.00%    100.00% # Class of committed instruction (Count)
system.cpu.commit.committedInstType_0::FloatMemWrite            0      0.00%    100.00% # Class of committed instruction (Count)
system.cpu.commit.committedInstType_0::IprAccess            0      0.00%    100.00% # Class of committed instruction (Count)
system.cpu.commit.committedInstType_0::InstPrefetch            0      0.00%    100.00% # Class of committed instruction (Count)
system.cpu.commit.committedInstType_0::total     26967922                       # Class of committed instruction (Count)
system.cpu.commit.commitEligibleSamples       2760047                       # number cycles where commit BW limit reached (Cycle)
system.cpu.dcache.demandHits::cpu.data        5348653                       # number of demand (read+write) hits (Count)
system.cpu.dcache.demandHits::total           5348653                       # number of demand (read+write) hits (Count)
system.cpu.dcache.overallHits::cpu.data       5348653                       # number of overall hits (Count)
system.cpu.dcache.overallHits::total          5348653                       # number of overall hits (Count)
system.cpu.dcache.demandMisses::cpu.data       182269                       # number of demand (read+write) misses (Count)
system.cpu.dcache.demandMisses::total          182269                       # number of demand (read+write) misses (Count)
system.cpu.dcache.overallMisses::cpu.data       182269                       # number of overall misses (Count)
system.cpu.dcache.overallMisses::total         182269                       # number of overall misses (Count)
system.cpu.dcache.demandMissLatency::cpu.data  10903883994                       # number of demand (read+write) miss ticks (Tick)
system.cpu.dcache.demandMissLatency::total  10903883994                       # number of demand (read+write) miss ticks (Tick)
system.cpu.dcache.overallMissLatency::cpu.data  10903883994                       # number of overall miss ticks (Tick)
system.cpu.dcache.overallMissLatency::total  10903883994                       # number of overall miss ticks (Tick)
system.cpu.dcache.demandAccesses::cpu.data      5530922                       # number of demand (read+write) accesses (Count)
system.cpu.dcache.demandAccesses::total       5530922                       # number of demand (read+write) accesses (Count)
system.cpu.dcache.overallAccesses::cpu.data      5530922                       # number of overall (read+write) accesses (Count)
system.cpu.dcache.overallAccesses::total      5530922                       # number of overall (read+write) accesses (Count)
system.cpu.dcache.demandMissRate::cpu.data     0.032955                       # miss rate for demand accesses (Ratio)
system.cpu.dcache.demandMissRate::total      0.032955                       # miss rate for demand accesses (Ratio)
system.cpu.dcache.overallMissRate::cpu.data     0.032955                       # miss rate for overall accesses (Ratio)
system.cpu.dcache.overallMissRate::total     0.032955                       # miss rate for overall accesses (Ratio)
system.cpu.dcache.demandAvgMissLatency::cpu.data 59823.030762                       # average overall miss latency in ticks ((Tick/Count))
system.cpu.dcache.demandAvgMissLatency::total 59823.030762                       # average overall miss latency in ticks ((Tick/Count))
system.cpu.dcache.overallAvgMissLatency::cpu.data 59823.030762                       # average overall miss latency ((Tick/Count))
system.cpu.dcache.overallAvgMissLatency::total 59823.030762                       # average overall miss latency ((Tick/Count))
system.cpu.dcache.blockedCycles::no_mshrs       103288                       # number of cycles access was blocked (Cycle)
system.cpu.dcache.blockedCycles::no_targets          528                       # number of cycles access was blocked (Cycle)
system.cpu.dcache.blockedCauses::no_mshrs         2198                       # number of times access was blocked (Count)
system.cpu.dcache.blockedCauses::no_targets           11                       # number of times access was blocked (Count)
system.cpu.dcache.avgBlocked::no_mshrs      46.991811                       # average number of cycles each access was blocked ((Cycle/Count))
system.cpu.dcache.avgBlocked::no_targets           48                       # average number of cycles each access was blocked ((Cycle/Count))
system.cpu.dcache.writebacks::writebacks        17109                       # number of writebacks (Count)
system.cpu.dcache.writebacks::total             17109                       # number of writebacks (Count)
system.cpu.dcache.demandMshrHits::cpu.data       101503                       # number of demand (read+write) MSHR hits (Count)
system.cpu.dcache.demandMshrHits::total        101503                       # number of demand (read+write) MSHR hits (Count)
system.cpu.dcache.overallMshrHits::cpu.data       101503                       # number of overall MSHR hits (Count)
system.cpu.dcache.overallMshrHits::total       101503                       # number of overall MSHR hits (Count)
system.cpu.dcache.demandMshrMisses::cpu.data        80766                       # number of demand (read+write) MSHR misses (Count)
system.cpu.dcache.demandMshrMisses::total        80766                       # number of demand (read+write) MSHR misses (Count)
system.cpu.dcache.overallMshrMisses::cpu.data        80766                       # number of overall MSHR misses (Count)
system.cpu.dcache.overallMshrMisses::total        80766                       # number of overall MSHR misses (Count)
system.cpu.dcache.demandMshrMissLatency::cpu.data   4739148205                       # number of demand (read+write) MSHR miss ticks (Tick)
system.cpu.dcache.demandMshrMissLatency::total   4739148205                       # number of demand (read+write) MSHR miss ticks (Tick)
system.cpu.dcache.overallMshrMissLatency::cpu.data   4739148205                       # number of overall MSHR miss ticks (Tick)
system.cpu.dcache.overallMshrMissLatency::total   4739148205                       # number of overall MSHR miss ticks (Tick)
system.cpu.dcache.demandMshrMissRate::cpu.data     0.014603                       # mshr miss ratio for demand accesses (Ratio)
system.cpu.dcache.demandMshrMissRate::total     0.014603                       # mshr miss ratio for demand accesses (Ratio)
system.cpu.dcache.overallMshrMissRate::cpu.data     0.014603                       # mshr miss ratio for overall accesses (Ratio)
system.cpu.dcache.overallMshrMissRate::total     0.014603                       # mshr miss ratio for overall accesses (Ratio)
system.cpu.dcache.demandAvgMshrMissLatency::cpu.data 58677.515353                       # average overall mshr miss latency ((Tick/Count))
system.cpu.dcache.demandAvgMshrMissLatency::total 58677.515353                       # average overall mshr miss latency ((Tick/Count))
system.cpu.dcache.overallAvgMshrMissLatency::cpu.data 58677.515353                       # average overall mshr miss latency ((Tick/Count))
system.cpu.dcache.overallAvgMshrMissLatency::total 58677.515353                       # average overall mshr miss latency ((Tick/Count))
system.cpu.dcache.replacements                  79748                       # number of replacements (Count)
system.cpu.dcache.ReadReq.hits::cpu.data      4628271                       # number of ReadReq hits (Count)
system.cpu.dcache.ReadReq.hits::total         4628271                       # number of ReadReq hits (Count)
system.cpu.dcache.ReadReq.misses::cpu.data       176582                       # number of ReadReq misses (Count)
system.cpu.dcache.ReadReq.misses::total        176582                       # number of ReadReq misses (Count)
system.cpu.dcache.ReadReq.missLatency::cpu.data  10566968500                       # number of ReadReq miss ticks (Tick)
system.cpu.dcache.ReadReq.missLatency::total  10566968500                       # number of ReadReq miss ticks (Tick)
system.cpu.dcache.ReadReq.accesses::cpu.data      4804853                       # number of ReadReq accesses(hits+misses) (Count)
system.cpu.dcache.ReadReq.accesses::total      4804853                       # number of ReadReq accesses(hits+misses) (Count)
system.cpu.dcache.ReadReq.missRate::cpu.data     0.036751                       # miss rate for ReadReq accesses (Ratio)
system.cpu.dcache.ReadReq.missRate::total     0.036751                       # miss rate for ReadReq accesses (Ratio)
system.cpu.dcache.ReadReq.avgMissLatency::cpu.data 59841.708102                       # average ReadReq miss latency ((Tick/Count))
system.cpu.dcache.ReadReq.avgMissLatency::total 59841.708102                       # average ReadReq miss latency ((Tick/Count))
system.cpu.dcache.ReadReq.mshrHits::cpu.data        98069                       # number of ReadReq MSHR hits (Count)
system.cpu.dcache.ReadReq.mshrHits::total        98069                       # number of ReadReq MSHR hits (Count)
system.cpu.dcache.ReadReq.mshrMisses::cpu.data        78513                       # number of ReadReq MSHR misses (Count)
system.cpu.dcache.ReadReq.mshrMisses::total        78513                       # number of ReadReq MSHR misses (Count)
system.cpu.dcache.ReadReq.mshrMissLatency::cpu.data   4605642500                       # number of ReadReq MSHR miss ticks (Tick)
system.cpu.dcache.ReadReq.mshrMissLatency::total   4605642500                       # number of ReadReq MSHR miss ticks (Tick)
system.cpu.dcache.ReadReq.mshrMissRate::cpu.data     0.016340                       # mshr miss rate for ReadReq accesses (Ratio)
system.cpu.dcache.ReadReq.mshrMissRate::total     0.016340                       # mshr miss rate for ReadReq accesses (Ratio)
system.cpu.dcache.ReadReq.avgMshrMissLatency::cpu.data 58660.890553                       # average ReadReq mshr miss latency ((Tick/Count))
system.cpu.dcache.ReadReq.avgMshrMissLatency::total 58660.890553                       # average ReadReq mshr miss latency ((Tick/Count))
system.cpu.dcache.SwapReq.hits::cpu.data           94                       # number of SwapReq hits (Count)
system.cpu.dcache.SwapReq.hits::total              94                       # number of SwapReq hits (Count)
system.cpu.dcache.SwapReq.misses::cpu.data            6                       # number of SwapReq misses (Count)
system.cpu.dcache.SwapReq.misses::total             6                       # number of SwapReq misses (Count)
system.cpu.dcache.SwapReq.missLatency::cpu.data       395000                       # number of SwapReq miss ticks (Tick)
system.cpu.dcache.SwapReq.missLatency::total       395000                       # number of SwapReq miss ticks (Tick)
system.cpu.dcache.SwapReq.accesses::cpu.data          100                       # number of SwapReq accesses(hits+misses) (Count)
system.cpu.dcache.SwapReq.accesses::total          100                       # number of SwapReq accesses(hits+misses) (Count)
system.cpu.dcache.SwapReq.missRate::cpu.data     0.060000                       # miss rate for SwapReq accesses (Ratio)
system.cpu.dcache.SwapReq.missRate::total     0.060000                       # miss rate for SwapReq accesses (Ratio)
system.cpu.dcache.SwapReq.avgMissLatency::cpu.data 65833.333333                       # average SwapReq miss latency ((Tick/Count))
system.cpu.dcache.SwapReq.avgMissLatency::total 65833.333333                       # average SwapReq miss latency ((Tick/Count))
system.cpu.dcache.SwapReq.mshrMisses::cpu.data            6                       # number of SwapReq MSHR misses (Count)
system.cpu.dcache.SwapReq.mshrMisses::total            6                       # number of SwapReq MSHR misses (Count)
system.cpu.dcache.SwapReq.mshrMissLatency::cpu.data       389000                       # number of SwapReq MSHR miss ticks (Tick)
system.cpu.dcache.SwapReq.mshrMissLatency::total       389000                       # number of SwapReq MSHR miss ticks (Tick)
system.cpu.dcache.SwapReq.mshrMissRate::cpu.data     0.060000                       # mshr miss rate for SwapReq accesses (Ratio)
system.cpu.dcache.SwapReq.mshrMissRate::total     0.060000                       # mshr miss rate for SwapReq accesses (Ratio)
system.cpu.dcache.SwapReq.avgMshrMissLatency::cpu.data 64833.333333                       # average SwapReq mshr miss latency ((Tick/Count))
system.cpu.dcache.SwapReq.avgMshrMissLatency::total 64833.333333                       # average SwapReq mshr miss latency ((Tick/Count))
system.cpu.dcache.WriteLineReq.misses::cpu.data          131                       # number of WriteLineReq misses (Count)
system.cpu.dcache.WriteLineReq.misses::total          131                       # number of WriteLineReq misses (Count)
system.cpu.dcache.WriteLineReq.missLatency::cpu.data      4174908                       # number of WriteLineReq miss ticks (Tick)
system.cpu.dcache.WriteLineReq.missLatency::total      4174908                       # number of WriteLineReq miss ticks (Tick)
system.cpu.dcache.WriteLineReq.accesses::cpu.data          131                       # number of WriteLineReq accesses(hits+misses) (Count)
system.cpu.dcache.WriteLineReq.accesses::total          131                       # number of WriteLineReq accesses(hits+misses) (Count)
system.cpu.dcache.WriteLineReq.missRate::cpu.data            1                       # miss rate for WriteLineReq accesses (Ratio)
system.cpu.dcache.WriteLineReq.missRate::total            1                       # miss rate for WriteLineReq accesses (Ratio)
system.cpu.dcache.WriteLineReq.avgMissLatency::cpu.data 31869.526718                       # average WriteLineReq miss latency ((Tick/Count))
system.cpu.dcache.WriteLineReq.avgMissLatency::total 31869.526718                       # average WriteLineReq miss latency ((Tick/Count))
system.cpu.dcache.WriteLineReq.mshrMisses::cpu.data          131                       # number of WriteLineReq MSHR misses (Count)
system.cpu.dcache.WriteLineReq.mshrMisses::total          131                       # number of WriteLineReq MSHR misses (Count)
system.cpu.dcache.WriteLineReq.mshrMissLatency::cpu.data      4043908                       # number of WriteLineReq MSHR miss ticks (Tick)
system.cpu.dcache.WriteLineReq.mshrMissLatency::total      4043908                       # number of WriteLineReq MSHR miss ticks (Tick)
system.cpu.dcache.WriteLineReq.mshrMissRate::cpu.data            1                       # mshr miss rate for WriteLineReq accesses (Ratio)
system.cpu.dcache.WriteLineReq.mshrMissRate::total            1                       # mshr miss rate for WriteLineReq accesses (Ratio)
system.cpu.dcache.WriteLineReq.avgMshrMissLatency::cpu.data 30869.526718                       # average WriteLineReq mshr miss latency ((Tick/Count))
system.cpu.dcache.WriteLineReq.avgMshrMissLatency::total 30869.526718                       # average WriteLineReq mshr miss latency ((Tick/Count))
system.cpu.dcache.WriteReq.hits::cpu.data       720382                       # number of WriteReq hits (Count)
system.cpu.dcache.WriteReq.hits::total         720382                       # number of WriteReq hits (Count)
system.cpu.dcache.WriteReq.misses::cpu.data         5556                       # number of WriteReq misses (Count)
system.cpu.dcache.WriteReq.misses::total         5556                       # number of WriteReq misses (Count)
system.cpu.dcache.WriteReq.missLatency::cpu.data    332740586                       # number of WriteReq miss ticks (Tick)
system.cpu.dcache.WriteReq.missLatency::total    332740586                       # number of WriteReq miss ticks (Tick)
system.cpu.dcache.WriteReq.accesses::cpu.data       725938                       # number of WriteReq accesses(hits+misses) (Count)
system.cpu.dcache.WriteReq.accesses::total       725938                       # number of WriteReq accesses(hits+misses) (Count)
system.cpu.dcache.WriteReq.missRate::cpu.data     0.007654                       # miss rate for WriteReq accesses (Ratio)
system.cpu.dcache.WriteReq.missRate::total     0.007654                       # miss rate for WriteReq accesses (Ratio)
system.cpu.dcache.WriteReq.avgMissLatency::cpu.data 59888.514399                       # average WriteReq miss latency ((Tick/Count))
system.cpu.dcache.WriteReq.avgMissLatency::total 59888.514399                       # average WriteReq miss latency ((Tick/Count))
system.cpu.dcache.WriteReq.mshrHits::cpu.data         3434                       # number of WriteReq MSHR hits (Count)
system.cpu.dcache.WriteReq.mshrHits::total         3434                       # number of WriteReq MSHR hits (Count)
system.cpu.dcache.WriteReq.mshrMisses::cpu.data         2122                       # number of WriteReq MSHR misses (Count)
system.cpu.dcache.WriteReq.mshrMisses::total         2122                       # number of WriteReq MSHR misses (Count)
system.cpu.dcache.WriteReq.mshrMissLatency::cpu.data    129461797                       # number of WriteReq MSHR miss ticks (Tick)
system.cpu.dcache.WriteReq.mshrMissLatency::total    129461797                       # number of WriteReq MSHR miss ticks (Tick)
system.cpu.dcache.WriteReq.mshrMissRate::cpu.data     0.002923                       # mshr miss rate for WriteReq accesses (Ratio)
system.cpu.dcache.WriteReq.mshrMissRate::total     0.002923                       # mshr miss rate for WriteReq accesses (Ratio)
system.cpu.dcache.WriteReq.avgMshrMissLatency::cpu.data 61009.329406                       # average WriteReq mshr miss latency ((Tick/Count))
system.cpu.dcache.WriteReq.avgMshrMissLatency::total 61009.329406                       # average WriteReq mshr miss latency ((Tick/Count))
system.cpu.dcache.power_state.pwrStateResidencyTicks::UNDEFINED   5338295000                       # Cumulative time (in ticks) in various power states (Tick)
system.cpu.dcache.tags.tagsInUse          1016.978984                       # Average ticks per tags in use ((Tick/Count))
system.cpu.dcache.tags.totalRefs              5429519                       # Total number of references to valid blocks. (Count)
system.cpu.dcache.tags.sampledRefs              80772                       # Sample count of references to valid blocks. (Count)
system.cpu.dcache.tags.avgRefs              67.220311                       # Average number of references to valid blocks. ((Count/Count))
system.cpu.dcache.tags.warmupTick              253500                       # The tick when the warmup percentage was hit. (Tick)
system.cpu.dcache.tags.occupancies::cpu.data  1016.978984                       # Average occupied blocks per tick, per requestor ((Count/Tick))
system.cpu.dcache.tags.avgOccs::cpu.data     0.993144                       # Average percentage of cache occupancy ((Ratio/Tick))
system.cpu.dcache.tags.avgOccs::total        0.993144                       # Average percentage of cache occupancy ((Ratio/Tick))
system.cpu.dcache.tags.occupanciesTaskId::1024         1024                       # Occupied blocks per task id (Count)
system.cpu.dcache.tags.ageTaskId_1024::0           97                       # Occupied blocks per task id, per block age (Count)
system.cpu.dcache.tags.ageTaskId_1024::1          885                       # Occupied blocks per task id, per block age (Count)
system.cpu.dcache.tags.ageTaskId_1024::2           39                       # Occupied blocks per task id, per block age (Count)
system.cpu.dcache.tags.ageTaskId_1024::3            3                       # Occupied blocks per task id, per block age (Count)
system.cpu.dcache.tags.ratioOccsTaskId::1024            1                       # Ratio of occupied blocks and all blocks, per task id (Ratio)
system.cpu.dcache.tags.tagAccesses           22204860                       # Number of tag accesses (Count)
system.cpu.dcache.tags.dataAccesses          22204860                       # Number of data accesses (Count)
system.cpu.dcache.tags.power_state.pwrStateResidencyTicks::UNDEFINED   5338295000                       # Cumulative time (in ticks) in various power states (Tick)
system.cpu.decode.idleCycles                  1366453                       # Number of cycles decode is idle (Cycle)
system.cpu.decode.blockedCycles               5297586                       # Number of cycles decode is blocked (Cycle)
system.cpu.decode.runCycles                   3567942                       # Number of cycles decode is running (Cycle)
system.cpu.decode.unblockCycles                279923                       # Number of cycles decode is unblocking (Cycle)
system.cpu.decode.squashCycles                  17671                       # Number of cycles decode is squashing (Cycle)
system.cpu.decode.branchResolved               281063                       # Number of times decode resolved a branch (Count)
system.cpu.decode.branchMispred                   839                       # Number of times decode detected a branch misprediction (Count)
system.cpu.decode.decodedInsts               27724619                       # Number of instructions handled by decode (Count)
system.cpu.decode.squashedInsts                  2845                       # Number of squashed instructions handled by decode (Count)
system.cpu.fetch.icacheStallCycles            1677869                       # Number of cycles fetch is stalled on an Icache miss (Cycle)
system.cpu.fetch.insts                       23524868                       # Number of instructions fetch has processed (Count)
system.cpu.fetch.branches                     1560380                       # Number of branches that fetch encountered (Count)
system.cpu.fetch.predictedBranches             322998                       # Number of branches that fetch has predicted taken (Count)
system.cpu.fetch.cycles                       8827258                       # Number of cycles fetch has run and was not squashing or blocked (Cycle)
system.cpu.fetch.squashCycles                   36976                       # Number of cycles fetch has spent squashing (Cycle)
system.cpu.fetch.miscStallCycles                  880                       # Number of cycles fetch has spent waiting on interrupts, or bad addresses, or out of MSHRs (Cycle)
system.cpu.fetch.pendingTrapStallCycles          5040                       # Number of stall cycles due to pending traps (Cycle)
system.cpu.fetch.icacheWaitRetryStallCycles           40                       # Number of stall cycles due to full MSHR (Cycle)
system.cpu.fetch.cacheLines                   1627633                       # Number of cache lines fetched (Count)
system.cpu.fetch.icacheSquashes                  4711                       # Number of outstanding Icache misses that were squashed (Count)
system.cpu.fetch.nisnDist::samples           10529575                       # Number of instructions fetched each cycle (Total) (Count)
system.cpu.fetch.nisnDist::mean              2.654805                       # Number of instructions fetched each cycle (Total) (Count)
system.cpu.fetch.nisnDist::stdev             3.547526                       # Number of instructions fetched each cycle (Total) (Count)
system.cpu.fetch.nisnDist::underflows               0      0.00%      0.00% # Number of instructions fetched each cycle (Total) (Count)
system.cpu.fetch.nisnDist::0                  6470993     61.46%     61.46% # Number of instructions fetched each cycle (Total) (Count)
system.cpu.fetch.nisnDist::1                    81777      0.78%     62.23% # Number of instructions fetched each cycle (Total) (Count)
system.cpu.fetch.nisnDist::2                   146560      1.39%     63.62% # Number of instructions fetched each cycle (Total) (Count)
system.cpu.fetch.nisnDist::3                    68874      0.65%     64.28% # Number of instructions fetched each cycle (Total) (Count)
system.cpu.fetch.nisnDist::4                    55910      0.53%     64.81% # Number of instructions fetched each cycle (Total) (Count)
system.cpu.fetch.nisnDist::5                   790383      7.51%     72.32% # Number of instructions fetched each cycle (Total) (Count)
system.cpu.fetch.nisnDist::6                    37674      0.36%     72.67% # Number of instructions fetched each cycle (Total) (Count)
system.cpu.fetch.nisnDist::7                    48386      0.46%     73.13% # Number of instructions fetched each cycle (Total) (Count)
system.cpu.fetch.nisnDist::8                  2829018     26.87%    100.00% # Number of instructions fetched each cycle (Total) (Count)
system.cpu.fetch.nisnDist::overflows                0      0.00%    100.00% # Number of instructions fetched each cycle (Total) (Count)
system.cpu.fetch.nisnDist::min_value                0                       # Number of instructions fetched each cycle (Total) (Count)
system.cpu.fetch.nisnDist::max_value                8                       # Number of instructions fetched each cycle (Total) (Count)
system.cpu.fetch.nisnDist::total             10529575                       # Number of instructions fetched each cycle (Total) (Count)
system.cpu.fetch.branchRate                  0.146150                       # Number of branch fetches per cycle (Ratio)
system.cpu.fetch.rate                        2.203406                       # Number of inst fetches per cycle ((Count/Cycle))
system.cpu.icache.demandHits::cpu.inst        1624936                       # number of demand (read+write) hits (Count)
system.cpu.icache.demandHits::total           1624936                       # number of demand (read+write) hits (Count)
system.cpu.icache.overallHits::cpu.inst       1624936                       # number of overall hits (Count)
system.cpu.icache.overallHits::total          1624936                       # number of overall hits (Count)
system.cpu.icache.demandMisses::cpu.inst         2696                       # number of demand (read+write) misses (Count)
system.cpu.icache.demandMisses::total            2696                       # number of demand (read+write) misses (Count)
system.cpu.icache.overallMisses::cpu.inst         2696                       # number of overall misses (Count)
system.cpu.icache.overallMisses::total           2696                       # number of overall misses (Count)
system.cpu.icache.demandMissLatency::cpu.inst    180819998                       # number of demand (read+write) miss ticks (Tick)
system.cpu.icache.demandMissLatency::total    180819998                       # number of demand (read+write) miss ticks (Tick)
system.cpu.icache.overallMissLatency::cpu.inst    180819998                       # number of overall miss ticks (Tick)
system.cpu.icache.overallMissLatency::total    180819998                       # number of overall miss ticks (Tick)
system.cpu.icache.demandAccesses::cpu.inst      1627632                       # number of demand (read+write) accesses (Count)
system.cpu.icache.demandAccesses::total       1627632                       # number of demand (read+write) accesses (Count)
system.cpu.icache.overallAccesses::cpu.inst      1627632                       # number of overall (read+write) accesses (Count)
system.cpu.icache.overallAccesses::total      1627632                       # number of overall (read+write) accesses (Count)
system.cpu.icache.demandMissRate::cpu.inst     0.001656                       # miss rate for demand accesses (Ratio)
system.cpu.icache.demandMissRate::total      0.001656                       # miss rate for demand accesses (Ratio)
system.cpu.icache.overallMissRate::cpu.inst     0.001656                       # miss rate for overall accesses (Ratio)
system.cpu.icache.overallMissRate::total     0.001656                       # miss rate for overall accesses (Ratio)
system.cpu.icache.demandAvgMissLatency::cpu.inst 67069.732196                       # average overall miss latency in ticks ((Tick/Count))
system.cpu.icache.demandAvgMissLatency::total 67069.732196                       # average overall miss latency in ticks ((Tick/Count))
system.cpu.icache.overallAvgMissLatency::cpu.inst 67069.732196                       # average overall miss latency ((Tick/Count))
system.cpu.icache.overallAvgMissLatency::total 67069.732196                       # average overall miss latency ((Tick/Count))
system.cpu.icache.blockedCycles::no_mshrs          712                       # number of cycles access was blocked (Cycle)
system.cpu.icache.blockedCycles::no_targets            0                       # number of cycles access was blocked (Cycle)
system.cpu.icache.blockedCauses::no_mshrs           15                       # number of times access was blocked (Count)
system.cpu.icache.blockedCauses::no_targets            0                       # number of times access was blocked (Count)
system.cpu.icache.avgBlocked::no_mshrs      47.466667                       # average number of cycles each access was blocked ((Cycle/Count))
system.cpu.icache.avgBlocked::no_targets          nan                       # average number of cycles each access was blocked ((Cycle/Count))
system.cpu.icache.writebacks::writebacks         1869                       # number of writebacks (Count)
system.cpu.icache.writebacks::total              1869                       # number of writebacks (Count)
system.cpu.icache.demandMshrHits::cpu.inst          570                       # number of demand (read+write) MSHR hits (Count)
system.cpu.icache.demandMshrHits::total           570                       # number of demand (read+write) MSHR hits (Count)
system.cpu.icache.overallMshrHits::cpu.inst          570                       # number of overall MSHR hits (Count)
system.cpu.icache.overallMshrHits::total          570                       # number of overall MSHR hits (Count)
system.cpu.icache.demandMshrMisses::cpu.inst         2126                       # number of demand (read+write) MSHR misses (Count)
system.cpu.icache.demandMshrMisses::total         2126                       # number of demand (read+write) MSHR misses (Count)
system.cpu.icache.overallMshrMisses::cpu.inst         2126                       # number of overall MSHR misses (Count)
system.cpu.icache.overallMshrMisses::total         2126                       # number of overall MSHR misses (Count)
system.cpu.icache.demandMshrMissLatency::cpu.inst    143905999                       # number of demand (read+write) MSHR miss ticks (Tick)
system.cpu.icache.demandMshrMissLatency::total    143905999                       # number of demand (read+write) MSHR miss ticks (Tick)
system.cpu.icache.overallMshrMissLatency::cpu.inst    143905999                       # number of overall MSHR miss ticks (Tick)
system.cpu.icache.overallMshrMissLatency::total    143905999                       # number of overall MSHR miss ticks (Tick)
system.cpu.icache.demandMshrMissRate::cpu.inst     0.001306                       # mshr miss ratio for demand accesses (Ratio)
system.cpu.icache.demandMshrMissRate::total     0.001306                       # mshr miss ratio for demand accesses (Ratio)
system.cpu.icache.overallMshrMissRate::cpu.inst     0.001306                       # mshr miss ratio for overall accesses (Ratio)
system.cpu.icache.overallMshrMissRate::total     0.001306                       # mshr miss ratio for overall accesses (Ratio)
system.cpu.icache.demandAvgMshrMissLatency::cpu.inst 67688.616651                       # average overall mshr miss latency ((Tick/Count))
system.cpu.icache.demandAvgMshrMissLatency::total 67688.616651                       # average overall mshr miss latency ((Tick/Count))
system.cpu.icache.overallAvgMshrMissLatency::cpu.inst 67688.616651                       # average overall mshr miss latency ((Tick/Count))
system.cpu.icache.overallAvgMshrMissLatency::total 67688.616651                       # average overall mshr miss latency ((Tick/Count))
system.cpu.icache.replacements                   1869                       # number of replacements (Count)
system.cpu.icache.ReadReq.hits::cpu.inst      1624936                       # number of ReadReq hits (Count)
system.cpu.icache.ReadReq.hits::total         1624936                       # number of ReadReq hits (Count)
system.cpu.icache.ReadReq.misses::cpu.inst         2696                       # number of ReadReq misses (Count)
system.cpu.icache.ReadReq.misses::total          2696                       # number of ReadReq misses (Count)
system.cpu.icache.ReadReq.missLatency::cpu.inst    180819998                       # number of ReadReq miss ticks (Tick)
system.cpu.icache.ReadReq.missLatency::total    180819998                       # number of ReadReq miss ticks (Tick)
system.cpu.icache.ReadReq.accesses::cpu.inst      1627632                       # number of ReadReq accesses(hits+misses) (Count)
system.cpu.icache.ReadReq.accesses::total      1627632                       # number of ReadReq accesses(hits+misses) (Count)
system.cpu.icache.ReadReq.missRate::cpu.inst     0.001656                       # miss rate for ReadReq accesses (Ratio)
system.cpu.icache.ReadReq.missRate::total     0.001656                       # miss rate for ReadReq accesses (Ratio)
system.cpu.icache.ReadReq.avgMissLatency::cpu.inst 67069.732196                       # average ReadReq miss latency ((Tick/Count))
system.cpu.icache.ReadReq.avgMissLatency::total 67069.732196                       # average ReadReq miss latency ((Tick/Count))
system.cpu.icache.ReadReq.mshrHits::cpu.inst          570                       # number of ReadReq MSHR hits (Count)
system.cpu.icache.ReadReq.mshrHits::total          570                       # number of ReadReq MSHR hits (Count)
system.cpu.icache.ReadReq.mshrMisses::cpu.inst         2126                       # number of ReadReq MSHR misses (Count)
system.cpu.icache.ReadReq.mshrMisses::total         2126                       # number of ReadReq MSHR misses (Count)
system.cpu.icache.ReadReq.mshrMissLatency::cpu.inst    143905999                       # number of ReadReq MSHR miss ticks (Tick)
system.cpu.icache.ReadReq.mshrMissLatency::total    143905999                       # number of ReadReq MSHR miss ticks (Tick)
system.cpu.icache.ReadReq.mshrMissRate::cpu.inst     0.001306                       # mshr miss rate for ReadReq accesses (Ratio)
system.cpu.icache.ReadReq.mshrMissRate::total     0.001306                       # mshr miss rate for ReadReq accesses (Ratio)
system.cpu.icache.ReadReq.avgMshrMissLatency::cpu.inst 67688.616651                       # average ReadReq mshr miss latency ((Tick/Count))
system.cpu.icache.ReadReq.avgMshrMissLatency::total 67688.616651                       # average ReadReq mshr miss latency ((Tick/Count))
system.cpu.icache.power_state.pwrStateResidencyTicks::UNDEFINED   5338295000                       # Cumulative time (in ticks) in various power states (Tick)
system.cpu.icache.tags.tagsInUse           255.260799                       # Average ticks per tags in use ((Tick/Count))
system.cpu.icache.tags.totalRefs              1627061                       # Total number of references to valid blocks. (Count)
system.cpu.icache.tags.sampledRefs               2125                       # Sample count of references to valid blocks. (Count)
system.cpu.icache.tags.avgRefs             765.675765                       # Average number of references to valid blocks. ((Count/Count))
system.cpu.icache.tags.warmupTick               87500                       # The tick when the warmup percentage was hit. (Tick)
system.cpu.icache.tags.occupancies::cpu.inst   255.260799                       # Average occupied blocks per tick, per requestor ((Count/Tick))
system.cpu.icache.tags.avgOccs::cpu.inst     0.997112                       # Average percentage of cache occupancy ((Ratio/Tick))
system.cpu.icache.tags.avgOccs::total        0.997112                       # Average percentage of cache occupancy ((Ratio/Tick))
system.cpu.icache.tags.occupanciesTaskId::1024          256                       # Occupied blocks per task id (Count)
system.cpu.icache.tags.ageTaskId_1024::0           80                       # Occupied blocks per task id, per block age (Count)
system.cpu.icache.tags.ageTaskId_1024::1          106                       # Occupied blocks per task id, per block age (Count)
system.cpu.icache.tags.ageTaskId_1024::3           70                       # Occupied blocks per task id, per block age (Count)
system.cpu.icache.tags.ratioOccsTaskId::1024            1                       # Ratio of occupied blocks and all blocks, per task id (Ratio)
system.cpu.icache.tags.tagAccesses            6512653                       # Number of tag accesses (Count)
system.cpu.icache.tags.dataAccesses           6512653                       # Number of data accesses (Count)
system.cpu.icache.tags.power_state.pwrStateResidencyTicks::UNDEFINED   5338295000                       # Cumulative time (in ticks) in various power states (Tick)
system.cpu.iew.idleCycles                           0                       # Number of cycles IEW is idle (Cycle)
system.cpu.iew.squashCycles                     17671                       # Number of cycles IEW is squashing (Cycle)
system.cpu.iew.blockCycles                    1917401                       # Number of cycles IEW is blocking (Cycle)
system.cpu.iew.unblockCycles                   107454                       # Number of cycles IEW is unblocking (Cycle)
system.cpu.iew.dispatchedInsts               27553335                       # Number of instructions dispatched to IQ (Count)
system.cpu.iew.dispSquashedInsts                 9027                       # Number of squashed instructions skipped by dispatch (Count)
system.cpu.iew.dispLoadInsts                  5024773                       # Number of dispatched load instructions (Count)
system.cpu.iew.dispStoreInsts                  763436                       # Number of dispatched store instructions (Count)
system.cpu.iew.dispNonSpecInsts                   380                       # Number of dispatched non-speculative instructions (Count)
system.cpu.iew.iqFullEvents                     53767                       # Number of times the IQ has become full, causing a stall (Count)
system.cpu.iew.lsqFullEvents                    46864                       # Number of times the LSQ has become full, causing a stall (Count)
system.cpu.iew.memOrderViolationEvents            135                       # Number of memory order violations (Count)
system.cpu.iew.predictedTakenIncorrect           7766                       # Number of branches that were predicted taken incorrectly (Count)
system.cpu.iew.predictedNotTakenIncorrect        11737                       # Number of branches that were predicted not taken incorrectly (Count)
system.cpu.iew.branchMispredicts                19503                       # Number of branch mispredicts detected at execute (Count)
system.cpu.iew.instsToCommit                 27272195                       # Cumulative count of insts sent to commit (Count)
system.cpu.iew.writebackCount                27261891                       # Cumulative count of insts written-back (Count)
system.cpu.iew.producerInst                  23334984                       # Number of instructions producing a value (Count)
system.cpu.iew.consumerInst                  35446169                       # Number of instructions consuming a value (Count)
system.cpu.iew.wbRate                        2.553427                       # Insts written-back per cycle ((Count/Cycle))
system.cpu.iew.wbFanout                      0.658322                       # Average fanout of values written-back ((Count/Count))
system.cpu.lsq0.forwLoads                      188273                       # Number of loads that had data forwarded from stores (Count)
system.cpu.lsq0.squashedLoads                  112653                       # Number of loads squashed (Count)
system.cpu.lsq0.ignoredResponses                   62                       # Number of memory responses ignored because the instruction is squashed (Count)
system.cpu.lsq0.memOrderViolation                 135                       # Number of memory ordering violations (Count)
system.cpu.lsq0.squashedStores                  37281                       # Number of stores squashed (Count)
system.cpu.lsq0.rescheduledLoads                 9313                       # Number of loads that were rescheduled (Count)
system.cpu.lsq0.blockedByCache                   2103                       # Number of times an access to memory failed due to the cache being blocked (Count)
system.cpu.lsq0.loadToUse::samples            4912120                       # Distribution of cycle latency between the first time a load is issued and its completion (Unspecified)
system.cpu.lsq0.loadToUse::mean              7.567737                       # Distribution of cycle latency between the first time a load is issued and its completion (Unspecified)
system.cpu.lsq0.loadToUse::stdev            27.759378                       # Distribution of cycle latency between the first time a load is issued and its completion (Unspecified)
system.cpu.lsq0.loadToUse::0-9                4743609     96.57%     96.57% # Distribution of cycle latency between the first time a load is issued and its completion (Unspecified)
system.cpu.lsq0.loadToUse::10-19                 2903      0.06%     96.63% # Distribution of cycle latency between the first time a load is issued and its completion (Unspecified)
system.cpu.lsq0.loadToUse::20-29                37545      0.76%     97.39% # Distribution of cycle latency between the first time a load is issued and its completion (Unspecified)
system.cpu.lsq0.loadToUse::30-39                12508      0.25%     97.65% # Distribution of cycle latency between the first time a load is issued and its completion (Unspecified)
system.cpu.lsq0.loadToUse::40-49                  910      0.02%     97.67% # Distribution of cycle latency between the first time a load is issued and its completion (Unspecified)
[...]
system.mem_ctrls.dram.perBankWrBursts::10         1112                       # Per bank write bursts (Count)
system.mem_ctrls.dram.perBankWrBursts::11         1458                       # Per bank write bursts (Count)
system.mem_ctrls.dram.perBankWrBursts::12          577                       # Per bank write bursts (Count)
system.mem_ctrls.dram.perBankWrBursts::13         1214                       # Per bank write bursts (Count)
system.mem_ctrls.dram.perBankWrBursts::14         1063                       # Per bank write bursts (Count)
system.mem_ctrls.dram.perBankWrBursts::15          642                       # Per bank write bursts (Count)
system.mem_ctrls.dram.totQLat               508677000                       # Total ticks spent queuing (Tick)
system.mem_ctrls.dram.totBusLat             282540000                       # Total ticks spent in databus transfers (Tick)
system.mem_ctrls.dram.totMemAccLat         1568202000                       # Total ticks spent from burst creation until serviced by the DRAM (Tick)
system.mem_ctrls.dram.avgQLat                 9001.86                       # Average queueing delay per DRAM burst ((Tick/Count))
system.mem_ctrls.dram.avgBusLat               5000.00                       # Average bus latency per DRAM burst ((Tick/Count))
system.mem_ctrls.dram.avgMemAccLat           27751.86                       # Average memory access latency per DRAM burst ((Tick/Count))
system.mem_ctrls.dram.readRowHits               48522                       # Number of row buffer hits during reads (Count)
system.mem_ctrls.dram.writeRowHits              11966                       # Number of row buffer hits during writes (Count)
system.mem_ctrls.dram.readRowHitRate            85.87                       # Row buffer hit rate for reads (Ratio)
system.mem_ctrls.dram.writeRowHitRate           85.61                       # Row buffer hit rate for writes (Ratio)
system.mem_ctrls.dram.bytesPerActivate::samples         9985                       # Bytes accessed per row activation (Byte)
system.mem_ctrls.dram.bytesPerActivate::mean   451.538107                       # Bytes accessed per row activation (Byte)
system.mem_ctrls.dram.bytesPerActivate::gmean   261.900353                       # Bytes accessed per row activation (Byte)
system.mem_ctrls.dram.bytesPerActivate::stdev   399.938192                       # Bytes accessed per row activation (Byte)
system.mem_ctrls.dram.bytesPerActivate::0-127         2866     28.70%     28.70% # Bytes accessed per row activation (Byte)
system.mem_ctrls.dram.bytesPerActivate::128-255         1927     19.30%     48.00% # Bytes accessed per row activation (Byte)
system.mem_ctrls.dram.bytesPerActivate::256-383          768      7.69%     55.69% # Bytes accessed per row activation (Byte)
system.mem_ctrls.dram.bytesPerActivate::384-511          485      4.86%     60.55% # Bytes accessed per row activation (Byte)
system.mem_ctrls.dram.bytesPerActivate::512-639          394      3.95%     64.50% # Bytes accessed per row activation (Byte)
system.mem_ctrls.dram.bytesPerActivate::640-767          333      3.34%     67.83% # Bytes accessed per row activation (Byte)
system.mem_ctrls.dram.bytesPerActivate::768-895          352      3.53%     71.36% # Bytes accessed per row activation (Byte)
system.mem_ctrls.dram.bytesPerActivate::896-1023          327      3.27%     74.63% # Bytes accessed per row activation (Byte)
system.mem_ctrls.dram.bytesPerActivate::1024-1151         2533     25.37%    100.00% # Bytes accessed per row activation (Byte)
system.mem_ctrls.dram.bytesPerActivate::total         9985                       # Bytes accessed per row activation (Byte)
system.mem_ctrls.dram.bytesRead               3616512                       # Total bytes read (Byte)
system.mem_ctrls.dram.bytesWritten             894528                       # Total bytes written (Byte)
system.mem_ctrls.dram.avgRdBW              677.465745                       # Average DRAM read bandwidth in MiBytes/s ((Byte/Second))
system.mem_ctrls.dram.avgWrBW              167.568109                       # Average DRAM write bandwidth in MiBytes/s ((Byte/Second))
system.mem_ctrls.dram.peakBW                 12800.00                       # Theoretical peak bandwidth in MiByte/s ((Byte/Second))
system.mem_ctrls.dram.busUtil                    6.60                       # Data bus utilization in percentage (Ratio)
system.mem_ctrls.dram.busUtilRead                5.29                       # Data bus utilization in percentage for reads (Ratio)
system.mem_ctrls.dram.busUtilWrite               1.31                       # Data bus utilization in percentage for writes (Ratio)
system.mem_ctrls.dram.pageHitRate               85.82                       # Row buffer hit rate, read and write combined (Ratio)
system.mem_ctrls.dram.power_state.pwrStateResidencyTicks::UNDEFINED   5338295000                       # Cumulative time (in ticks) in various power states (Tick)
system.mem_ctrls.dram.rank0.actEnergy        32815440                       # Energy for activate commands per rank (pJ) (Joule)
system.mem_ctrls.dram.rank0.preEnergy        17422845                       # Energy for precharge commands per rank (pJ) (Joule)
system.mem_ctrls.dram.rank0.readEnergy      178664220                       # Energy for read commands per rank (pJ) (Joule)
system.mem_ctrls.dram.rank0.writeEnergy      28104480                       # Energy for write commands per rank (pJ) (Joule)
system.mem_ctrls.dram.rank0.refreshEnergy 421028400.000000                       # Energy for refresh commands per rank (pJ) (Joule)
system.mem_ctrls.dram.rank0.actBackEnergy   1785575730                       # Energy for active background per rank (pJ) (Joule)
system.mem_ctrls.dram.rank0.preBackEnergy    546262560                       # Energy for precharge background per rank (pJ) (Joule)
system.mem_ctrls.dram.rank0.actPowerDownEnergy            0                       # Energy for active power-down per rank (pJ) (Joule)
system.mem_ctrls.dram.rank0.prePowerDownEnergy            0                       # Energy for precharge power-down per rank (pJ) (Joule)
system.mem_ctrls.dram.rank0.selfRefreshEnergy            0                       # Energy for self refresh per rank (pJ) (Joule)
system.mem_ctrls.dram.rank0.totalEnergy    3009873675                       # Total energy per rank (pJ) (Joule)
system.mem_ctrls.dram.rank0.averagePower   563.826779                       # Core power per rank (mW) (Watt)
system.mem_ctrls.dram.rank0.totalIdleTime            0                       # Total Idle time Per DRAM Rank (Tick)
system.mem_ctrls.dram.rank0.pwrStateTime::IDLE   1401694250                       # Time in different power states (Tick)
system.mem_ctrls.dram.rank0.pwrStateTime::REF    178100000                       # Time in different power states (Tick)
system.mem_ctrls.dram.rank0.pwrStateTime::SREF            0                       # Time in different power states (Tick)
system.mem_ctrls.dram.rank0.pwrStateTime::PRE_PDN            0                       # Time in different power states (Tick)
system.mem_ctrls.dram.rank0.pwrStateTime::ACT   3758500750                       # Time in different power states (Tick)
system.mem_ctrls.dram.rank0.pwrStateTime::ACT_PDN            0                       # Time in different power states (Tick)
system.mem_ctrls.dram.rank1.actEnergy        38563140                       # Energy for activate commands per rank (pJ) (Joule)
system.mem_ctrls.dram.rank1.preEnergy        20470230                       # Energy for precharge commands per rank (pJ) (Joule)
system.mem_ctrls.dram.rank1.readEnergy      224802900                       # Energy for read commands per rank (pJ) (Joule)
system.mem_ctrls.dram.rank1.writeEnergy      44855460                       # Energy for write commands per rank (pJ) (Joule)
system.mem_ctrls.dram.rank1.refreshEnergy 421028400.000000                       # Energy for refresh commands per rank (pJ) (Joule)
system.mem_ctrls.dram.rank1.actBackEnergy   2056281270                       # Energy for active background per rank (pJ) (Joule)
system.mem_ctrls.dram.rank1.preBackEnergy    318300000                       # Energy for precharge background per rank (pJ) (Joule)
system.mem_ctrls.dram.rank1.actPowerDownEnergy            0                       # Energy for active power-down per rank (pJ) (Joule)
system.mem_ctrls.dram.rank1.prePowerDownEnergy            0                       # Energy for precharge power-down per rank (pJ) (Joule)
system.mem_ctrls.dram.rank1.selfRefreshEnergy            0                       # Energy for self refresh per rank (pJ) (Joule)
system.mem_ctrls.dram.rank1.totalEnergy    3124301400                       # Total energy per rank (pJ) (Joule)
system.mem_ctrls.dram.rank1.averagePower   585.262036                       # Core power per rank (mW) (Watt)
system.mem_ctrls.dram.rank1.totalIdleTime            0                       # Total Idle time Per DRAM Rank (Tick)
system.mem_ctrls.dram.rank1.pwrStateTime::IDLE    806774250                       # Time in different power states (Tick)
system.mem_ctrls.dram.rank1.pwrStateTime::REF    178100000                       # Time in different power states (Tick)
system.mem_ctrls.dram.rank1.pwrStateTime::SREF            0                       # Time in different power states (Tick)
system.mem_ctrls.dram.rank1.pwrStateTime::PRE_PDN            0                       # Time in different power states (Tick)
system.mem_ctrls.dram.rank1.pwrStateTime::ACT   4353420750                       # Time in different power states (Tick)
system.mem_ctrls.dram.rank1.pwrStateTime::ACT_PDN            0                       # Time in different power states (Tick)
system.mem_ctrls.power_state.pwrStateResidencyTicks::UNDEFINED   5338295000                       # Cumulative time (in ticks) in various power states (Tick)
system.membus.transDist::ReadResp               55268                       # Transaction distribution (Count)
system.membus.transDist::WritebackDirty         14001                       # Transaction distribution (Count)
system.membus.transDist::CleanEvict             38706                       # Transaction distribution (Count)
system.membus.transDist::ReadExReq               1479                       # Transaction distribution (Count)
system.membus.transDist::ReadExResp              1479                       # Transaction distribution (Count)
system.membus.transDist::ReadSharedReq          55268                       # Transaction distribution (Count)
system.membus.transDist::InvalidateReq            141                       # Transaction distribution (Count)
system.membus.pktCount_system.l2.mem_side_port::system.mem_ctrls.port       166342                       # Packet count per connected requestor and responder (Count)
system.membus.pktCount::total                  166342                       # Packet count per connected requestor and responder (Count)
system.membus.pktSize_system.l2.mem_side_port::system.mem_ctrls.port      4527872                       # Cumulative packet size per connected requestor and responder (Byte)
system.membus.pktSize::total                  4527872                       # Cumulative packet size per connected requestor and responder (Byte)
system.membus.snoops                                0                       # Total snoops (Count)
system.membus.snoopTraffic                          0                       # Total snoop traffic (Byte)
system.membus.snoopFanout::samples              56888                       # Request fanout histogram (Count)
system.membus.snoopFanout::mean                     0                       # Request fanout histogram (Count)
system.membus.snoopFanout::stdev                    0                       # Request fanout histogram (Count)
system.membus.snoopFanout::underflows               0      0.00%      0.00% # Request fanout histogram (Count)
system.membus.snoopFanout::0                    56888    100.00%    100.00% # Request fanout histogram (Count)
system.membus.snoopFanout::1                        0      0.00%    100.00% # Request fanout histogram (Count)
system.membus.snoopFanout::overflows                0      0.00%    100.00% # Request fanout histogram (Count)
system.membus.snoopFanout::min_value                0                       # Request fanout histogram (Count)
system.membus.snoopFanout::max_value                0                       # Request fanout histogram (Count)
system.membus.snoopFanout::total                56888                       # Request fanout histogram (Count)
system.membus.power_state.pwrStateResidencyTicks::UNDEFINED   5338295000                       # Cumulative time (in ticks) in various power states (Tick)
system.membus.reqLayer0.occupancy           177984000                       # Layer occupancy (ticks) (Tick)
system.membus.reqLayer0.utilization               0.0                       # Layer utilization (Ratio)
system.membus.respLayer1.occupancy          297508250                       # Layer occupancy (ticks) (Tick)
system.membus.respLayer1.utilization              0.1                       # Layer utilization (Ratio)
system.membus.snoop_filter.totRequests         109595                       # Total number of requests made to the snoop filter. (Count)
system.membus.snoop_filter.hitSingleRequests        52707                       # Number of requests hitting in the snoop filter with a single holder of the requested data. (Count)
system.membus.snoop_filter.hitMultiRequests            0                       # Number of requests hitting in the snoop filter with multiple (>1) holders of the requested data. (Count)
system.membus.snoop_filter.totSnoops                0                       # Total number of snoops made to the snoop filter. (Count)
system.membus.snoop_filter.hitSingleSnoops            0                       # Number of snoops hitting in the snoop filter with a single holder of the requested data. (Count)
system.membus.snoop_filter.hitMultiSnoops            0                       # Number of snoops hitting in the snoop filter with multiple (>1) holders of the requested data. (Count)
system.tol2bus.transDist::ReadResp              80638                       # Transaction distribution (Count)
system.tol2bus.transDist::WritebackDirty        31110                       # Transaction distribution (Count)
system.tol2bus.transDist::WritebackClean         1869                       # Transaction distribution (Count)
system.tol2bus.transDist::CleanEvict           101983                       # Transaction distribution (Count)
system.tol2bus.transDist::ReadExReq              2118                       # Transaction distribution (Count)
system.tol2bus.transDist::ReadExResp             2118                       # Transaction distribution (Count)
system.tol2bus.transDist::ReadCleanReq           2126                       # Transaction distribution (Count)
system.tol2bus.transDist::ReadSharedReq         78513                       # Transaction distribution (Count)
system.tol2bus.transDist::InvalidateReq           141                       # Transaction distribution (Count)
system.tol2bus.transDist::InvalidateResp          141                       # Transaction distribution (Count)
system.tol2bus.pktCount_system.cpu.icache.mem_side_port::system.l2.cpu_side_port         6120                       # Packet count per connected requestor and responder (Count)
system.tol2bus.pktCount_system.cpu.dcache.mem_side_port::system.l2.cpu_side_port       241292                       # Packet count per connected requestor and responder (Count)
system.tol2bus.pktCount::total                 247412                       # Packet count per connected requestor and responder (Count)
system.tol2bus.pktSize_system.cpu.icache.mem_side_port::system.l2.cpu_side_port       255616                       # Cumulative packet size per connected requestor and responder (Byte)
system.tol2bus.pktSize_system.cpu.dcache.mem_side_port::system.l2.cpu_side_port      6255360                       # Cumulative packet size per connected requestor and responder (Byte)
system.tol2bus.pktSize::total                 6510976                       # Cumulative packet size per connected requestor and responder (Byte)
system.tol2bus.snoops                           53345                       # Total snoops (Count)
system.tol2bus.snoopTraffic                    896064                       # Total snoop traffic (Byte)
system.tol2bus.snoopFanout::samples            136243                       # Request fanout histogram (Count)
system.tol2bus.snoopFanout::mean             0.007024                       # Request fanout histogram (Count)
system.tol2bus.snoopFanout::stdev            0.083516                       # Request fanout histogram (Count)
system.tol2bus.snoopFanout::underflows              0      0.00%      0.00% # Request fanout histogram (Count)
system.tol2bus.snoopFanout::0                  135286     99.30%     99.30% # Request fanout histogram (Count)
system.tol2bus.snoopFanout::1                     957      0.70%    100.00% # Request fanout histogram (Count)
system.tol2bus.snoopFanout::2                       0      0.00%    100.00% # Request fanout histogram (Count)
system.tol2bus.snoopFanout::overflows               0      0.00%    100.00% # Request fanout histogram (Count)
system.tol2bus.snoopFanout::min_value               0                       # Request fanout histogram (Count)
system.tol2bus.snoopFanout::max_value               1                       # Request fanout histogram (Count)
system.tol2bus.snoopFanout::total              136243                       # Request fanout histogram (Count)
system.tol2bus.power_state.pwrStateResidencyTicks::UNDEFINED   5338295000                       # Cumulative time (in ticks) in various power states (Tick)
system.tol2bus.reqLayer0.occupancy          101235500                       # Layer occupancy (ticks) (Tick)
system.tol2bus.reqLayer0.utilization              0.0                       # Layer utilization (Ratio)
system.tol2bus.respLayer0.occupancy           3188498                       # Layer occupancy (ticks) (Tick)
system.tol2bus.respLayer0.utilization             0.0                       # Layer utilization (Ratio)
system.tol2bus.respLayer1.occupancy         121017499                       # Layer occupancy (ticks) (Tick)
system.tol2bus.respLayer1.utilization             0.0                       # Layer utilization (Ratio)
system.tol2bus.snoop_filter.totRequests        164515                       # Total number of requests made to the snoop filter. (Count)
system.tol2bus.snoop_filter.hitSingleRequests        81617                       # Number of requests hitting in the snoop filter with a single holder of the requested data. (Count)
system.tol2bus.snoop_filter.hitMultiRequests            1                       # Number of requests hitting in the snoop filter with multiple (>1) holders of the requested data. (Count)
system.tol2bus.snoop_filter.totSnoops             956                       # Total number of snoops made to the snoop filter. (Count)
system.tol2bus.snoop_filter.hitSingleSnoops          956                       # Number of snoops hitting in the snoop filter with a single holder of the requested data. (Count)
system.tol2bus.snoop_filter.hitMultiSnoops            0                       # Number of snoops hitting in the snoop filter with multiple (>1) holders of the requested data. (Count)
system.voltage_domain.voltage                       1                       # Voltage in Volts (Volt)
system.workload.inst.arm                            0                       # number of arm instructions executed (Count)
system.workload.inst.quiesce                        0                       # number of quiesce instructions executed (Count)

---------- End Simulation Statistics   ----------
