
---------- Begin Simulation Statistics ----------
simSeconds                                   0.003493                       # Number of seconds simulated (Second)
simTicks                                   3493033000                       # Number of ticks simulated (Tick)
finalTick                                  4483195000                       # Number of ticks from beginning of simulation (restored from checkpoints and never reset) (Tick)
simFreq                                  1000000000000                       # The number of ticks per simulated second ((Tick/Second))
hostSeconds                                     24.77                       # Real time elapsed on the host (Second)
hostTickRate                                141008988                       # The number of ticks simulated per host second (ticks/s) ((Tick/Second))
hostMemory                                     681144                       # Number of bytes of host memory used (Byte)
simInsts                                      7928465                       # Number of instructions simulated (Count)
simOps                                        8268979                       # Number of ops (including micro ops) simulated (Count)
hostInstRate                                   320060                       # Simulator instruction rate (inst/s) ((Count/Second))
hostOpRate                                     333805                       # Simulator op (including micro ops) rate (op/s) ((Count/Second))
system.clk_domain.clock                          1000                       # Clock period in ticks (Tick)
system.cpu.numCycles                          6986066                       # Number of cpu cycles simulated (Cycle)
system.cpu.numWorkItemsStarted                      0                       # Number of work items this cpu started (Count)
system.cpu.numWorkItemsCompleted                    0                       # Number of work items this cpu completed (Count)
system.cpu.instsAdded                         6397266                       # Number of instructions added to the IQ (excludes non-spec) (Count)
system.cpu.nonSpecInstsAdded                      244                       # Number of non-speculative instructions added to the IQ (Count)
system.cpu.instsIssued                        6381049                       # Number of instructions issued (Count)
system.cpu.squashedInstsIssued                    273                       # Number of squashed instructions issued (Count)
system.cpu.squashedInstsExamined                55061                       # Number of squashed instructions iterated over during squash; mainly for profiling (Count)
system.cpu.squashedOperandsExamined            102806                       # Number of squashed operands that are examined and possibly removed from graph (Count)
system.cpu.squashedNonSpecRemoved                  99                       # Number of squashed non-spec instructions that were removed (Count)
system.cpu.numIssuedDist::samples             6964637                       # Number of insts issued each cycle (Count)
system.cpu.numIssuedDist::mean               0.916207                       # Number of insts issued each cycle (Count)
system.cpu.numIssuedDist::stdev              2.128874                       # Number of insts issued each cycle (Count)
system.cpu.numIssuedDist::underflows                0      0.00%      0.00% # Number of insts issued each cycle (Count)
system.cpu.numIssuedDist::0                   5541911     79.57%     79.57% # Number of insts issued each cycle (Count)
system.cpu.numIssuedDist::1                    271305      3.90%     83.47% # Number of insts issued each cycle (Count)
system.cpu.numIssuedDist::2                    171179      2.46%     85.93% # Number of insts issued each cycle (Count)
system.cpu.numIssuedDist::3                     74847      1.07%     87.00% # Number of insts issued each cycle (Count)
system.cpu.numIssuedDist::4                    175518      2.52%     89.52% # Number of insts issued each cycle (Count)
system.cpu.numIssuedDist::5                    144668      2.08%     91.60% # Number of insts issued each cycle (Count)
system.cpu.numIssuedDist::6                    183205      2.63%     94.23% # Number of insts issued each cycle (Count)
system.cpu.numIssuedDist::7                    197829      2.84%     97.07% # Number of insts issued each cycle (Count)
system.cpu.numIssuedDist::8                    204175      2.93%    100.00% # Number of insts issued each cycle (Count)
system.cpu.numIssuedDist::overflows                 0      0.00%    100.00% # Number of insts issued each cycle (Count)
system.cpu.numIssuedDist::min_value                 0                       # Number of insts issued each cycle (Count)
system.cpu.numIssuedDist::max_value                 8                       # Number of insts issued each cycle (Count)
system.cpu.numIssuedDist::total               6964637                       # Number of insts issued each cycle (Count)
system.cpu.statFuBusy::No_OpClass                   0      0.00%      0.00% # attempts to use FU when none available (Count)
system.cpu.statFuBusy::IntAlu                     102      0.02%      0.02% # attempts to use FU when none available (Count)
system.cpu.statFuBusy::IntMult                      0      0.00%      0.02% # attempts to use FU when none available (Count)
system.cpu.statFuBusy::IntDiv                       0      0.00%      0.02% # attempts to use FU when none available (Count)
system.cpu.statFuBusy::FloatAdd                     0      0.00%      0.02% # attempts to use FU when none available (Count)
system.cpu.statFuBusy::FloatCmp                     0      0.00%      0.02% # attempts to use FU when none available (Count)
system.cpu.statFuBusy::FloatCvt                     0      0.00%      0.02% # attempts to use FU when none available (Count)
system.cpu.statFuBusy::FloatMult                    0      0.00%      0.02% # attempts to use FU when none available (Count)
system.cpu.statFuBusy::FloatMultAcc                 0      0.00%      0.02% # attempts to use FU when none available (Count)
system.cpu.statFuBusy::FloatDiv                     0      0.00%      0.02% # attempts to use FU when none available (Count)
system.cpu.statFuBusy::FloatMisc                    0      0.00%      0.02% # attempts to use FU when none available (Count)
system.cpu.statFuBusy::FloatSqrt                    0      0.00%      0.02% # attempts to use FU when none available (Count)
system.cpu.statFuBusy::SimdAdd                 134530     21.15%     21.17% # attempts to use FU when none available (Count)
system.cpu.statFuBusy::SimdAddAcc                   0      0.00%     21.17% # attempts to use FU when none available (Count)
system.cpu.statFuBusy::SimdAlu                 416646     65.51%     86.68% # attempts to use FU when none available (Count)
system.cpu.statFuBusy::SimdCmp                      0      0.00%     86.68% # attempts to use FU when none available (Count)
system.cpu.statFuBusy::SimdCvt                      0      0.00%     86.68% # attempts to use FU when none available (Count)
system.cpu.statFuBusy::SimdMisc                 17032      2.68%     89.36% # attempts to use FU when none available (Count)
system.cpu.statFuBusy::SimdMult                     0      0.00%     89.36% # attempts to use FU when none available (Count)
system.cpu.statFuBusy::SimdMultAcc                  0      0.00%     89.36% # attempts to use FU when none available (Count)
system.cpu.statFuBusy::SimdShift                    0      0.00%     89.36% # attempts to use FU when none available (Count)
system.cpu.statFuBusy::SimdShiftAcc                 0      0.00%     89.36% # attempts to use FU when none available (Count)
system.cpu.statFuBusy::SimdDiv                      0      0.00%     89.36% # attempts to use FU when none available (Count)
system.cpu.statFuBusy::SimdSqrt                     0      0.00%     89.36% # attempts to use FU when none available (Count)
system.cpu.statFuBusy::SimdFloatAdd                 0      0.00%     89.36% # attempts to use FU when none available (Count)
system.cpu.statFuBusy::SimdFloatAlu                 0      0.00%     89.36% # attempts to use FU when none available (Count)
system.cpu.statFuBusy::SimdFloatCmp                 0      0.00%     89.36% # attempts to use FU when none available (Count)
system.cpu.statFuBusy::SimdFloatCvt                 0      0.00%     89.36% # attempts to use FU when none available (Count)
system.cpu.statFuBusy::SimdFloatDiv                 0      0.00%     89.36% # attempts to use FU when none available (Count)
system.cpu.statFuBusy::SimdFloatMisc                0      0.00%     89.36% # attempts to use FU when none available (Count)
system.cpu.statFuBusy::SimdFloatMult                0      0.00%     89.36% # attempts to use FU when none available (Count)
system.cpu.statFuBusy::SimdFloatMultAcc             0      0.00%     89.36% # attempts to use FU when none available (Count)
system.cpu.statFuBusy::SimdFloatSqrt                0      0.00%     89.36% # attempts to use FU when none available (Count)
system.cpu.statFuBusy::SimdReduceAdd                0      0.00%     89.36% # attempts to use FU when none available (Count)
system.cpu.statFuBusy::SimdReduceAlu                0      0.00%     89.36% # attempts to use FU when none available (Count)
system.cpu.statFuBusy::SimdReduceCmp                0      0.00%     89.36% # attempts to use FU when none available (Count)
system.cpu.statFuBusy::SimdFloatReduceAdd            0      0.00%     89.36% # attempts to use FU when none available (Count)
system.cpu.statFuBusy::SimdFloatReduceCmp            0      0.00%     89.36% # attempts to use FU when none available (Count)
system.cpu.statFuBusy::SimdAes                      0      0.00%     89.36% # attempts to use FU when none available (Count)
system.cpu.statFuBusy::SimdAesMix                   0      0.00%     89.36% # attempts to use FU when none available (Count)
system.cpu.statFuBusy::SimdSha1Hash                 0      0.00%     89.36% # attempts to use FU when none available (Count)
system.cpu.statFuBusy::SimdSha1Hash2                0      0.00%     89.36% # attempts to use FU when none available (Count)
system.cpu.statFuBusy::SimdSha256Hash               0      0.00%     89.36% # attempts to use FU when none available (Count)
system.cpu.statFuBusy::SimdSha256Hash2              0      0.00%     89.36% # attempts to use FU when none available (Count)
system.cpu.statFuBusy::SimdShaSigma2                0      0.00%     89.36% # attempts to use FU when none available (Count)
system.cpu.statFuBusy::SimdShaSigma3                0      0.00%     89.36% # attempts to use FU when none available (Count)
system.cpu.statFuBusy::SimdPredAlu                  0      0.00%     89.36% # attempts to use FU when none available (Count)
system.cpu.statFuBusy::MemRead                  67412     10.60%     99.96% # attempts to use FU when none available (Count)
system.cpu.statFuBusy::MemWrite                   249      0.04%    100.00% # attempts to use FU when none available (Count)
system.cpu.statFuBusy::FloatMemRead                 0      0.00%    100.00% # attempts to use FU when none available (Count)
system.cpu.statFuBusy::FloatMemWrite                0      0.00%    100.00% # attempts to use FU when none available (Count)
system.cpu.statFuBusy::IprAccess                    0      0.00%    100.00% # attempts to use FU when none available (Count)
system.cpu.statFuBusy::InstPrefetch                 0      0.00%    100.00% # attempts to use FU when none available (Count)
system.cpu.statIssuedInstType_0::No_OpClass        17833      0.28%      0.28% # Number of instructions issued per FU type, per thread (Count)
system.cpu.statIssuedInstType_0::IntAlu       2192690     34.36%     34.64% # Number of instructions issued per FU type, per thread (Count)
system.cpu.statIssuedInstType_0::IntMult           30      0.00%     34.64% # Number of instructions issued per FU type, per thread (Count)
system.cpu.statIssuedInstType_0::IntDiv            14      0.00%     34.64% # Number of instructions issued per FU type, per thread (Count)
system.cpu.statIssuedInstType_0::FloatAdd            0      0.00%     34.64% # Number of instructions issued per FU type, per thread (Count)
system.cpu.statIssuedInstType_0::FloatCmp            0      0.00%     34.64% # Number of instructions issued per FU type, per thread (Count)
system.cpu.statIssuedInstType_0::FloatCvt            0      0.00%     34.64% # Number of instructions issued per FU type, per thread (Count)
system.cpu.statIssuedInstType_0::FloatMult            0      0.00%     34.64% # Number of instructions issued per FU type, per thread (Count)
system.cpu.statIssuedInstType_0::FloatMultAcc            0      0.00%     34.64% # Number of instructions issued per FU type, per thread (Count)
system.cpu.statIssuedInstType_0::FloatDiv            0      0.00%     34.64% # Number of instructions issued per FU type, per thread (Count)
system.cpu.statIssuedInstType_0::FloatMisc            0      0.00%     34.64% # Number of instructions issued per FU type, per thread (Count)
system.cpu.statIssuedInstType_0::FloatSqrt            0      0.00%     34.64% # Number of instructions issued per FU type, per thread (Count)
system.cpu.statIssuedInstType_0::SimdAdd       544776      8.54%     43.18% # Number of instructions issued per FU type, per thread (Count)
system.cpu.statIssuedInstType_0::SimdAddAcc            0      0.00%     43.18% # Number of instructions issued per FU type, per thread (Count)
system.cpu.statIssuedInstType_0::SimdAlu      1089986     17.08%     60.26% # Number of instructions issued per FU type, per thread (Count)
system.cpu.statIssuedInstType_0::SimdCmp            0      0.00%     60.26% # Number of instructions issued per FU type, per thread (Count)
system.cpu.statIssuedInstType_0::SimdCvt            0      0.00%     60.26% # Number of instructions issued per FU type, per thread (Count)
system.cpu.statIssuedInstType_0::SimdMisc       544789      8.54%     68.80% # Number of instructions issued per FU type, per thread (Count)
system.cpu.statIssuedInstType_0::SimdMult            0      0.00%     68.80% # Number of instructions issued per FU type, per thread (Count)
system.cpu.statIssuedInstType_0::SimdMultAcc            0      0.00%     68.80% # Number of instructions issued per FU type, per thread (Count)
system.cpu.statIssuedInstType_0::SimdShift            0      0.00%     68.80% # Number of instructions issued per FU type, per thread (Count)
system.cpu.statIssuedInstType_0::SimdShiftAcc            0      0.00%     68.80% # Number of instructions issued per FU type, per thread (Count)
system.cpu.statIssuedInstType_0::SimdDiv            0      0.00%     68.80% # Number of instructions issued per FU type, per thread (Count)
system.cpu.statIssuedInstType_0::SimdSqrt            0      0.00%     68.80% # Number of instructions issued per FU type, per thread (Count)
system.cpu.statIssuedInstType_0::SimdFloatAdd            0      0.00%     68.80% # Number of instructions issued per FU type, per thread (Count)
system.cpu.statIssuedInstType_0::SimdFloatAlu            0      0.00%     68.80% # Number of instructions issued per FU type, per thread (Count)
system.cpu.statIssuedInstType_0::SimdFloatCmp            0      0.00%     68.80% # Number of instructions issued per FU type, per thread (Count)
system.cpu.statIssuedInstType_0::SimdFloatCvt            0      0.00%     68.80% # Number of instructions issued per FU type, per thread (Count)
system.cpu.statIssuedInstType_0::SimdFloatDiv            0      0.00%     68.80% # Number of instructions issued per FU type, per thread (Count)
system.cpu.statIssuedInstType_0::SimdFloatMisc            0      0.00%     68.80% # Number of instructions issued per FU type, per thread (Count)
system.cpu.statIssuedInstType_0::SimdFloatMult            0      0.00%     68.80% # Number of instructions issued per FU type, per thread (Count)
system.cpu.statIssuedInstType_0::SimdFloatMultAcc            0      0.00%     68.80% # Number of instructions issued per FU type, per thread (Count)
system.cpu.statIssuedInstType_0::SimdFloatSqrt            0      0.00%     68.80% # Number of instructions issued per FU type, per thread (Count)
system.cpu.statIssuedInstType_0::SimdReduceAdd            0      0.00%     68.80% # Number of instructions issued per FU type, per thread (Count)
system.cpu.statIssuedInstType_0::SimdReduceAlu            0      0.00%     68.80% # Number of instructions issued per FU type, per thread (Count)
system.cpu.statIssuedInstType_0::SimdReduceCmp            0      0.00%     68.80% # Number of instructions issued per FU type, per thread (Count)
system.cpu.statIssuedInstType_0::SimdFloatReduceAdd            0      0.00%     68.80% # Number of instructions issued per FU type, per thread (Count)
system.cpu.statIssuedInstType_0::SimdFloatReduceCmp            0      0.00%     68.80% # Number of instructions issued per FU type, per thread (Count)
system.cpu.statIssuedInstType_0::SimdAes            0      0.00%     68.80% # Number of instructions issued per FU type, per thread (Count)
system.cpu.statIssuedInstType_0::SimdAesMix            0      0.00%     68.80% # Number of instructions issued per FU type, per thread (Count)
system.cpu.statIssuedInstType_0::SimdSha1Hash            0      0.00%     68.80% # Number of instructions issued per FU type, per thread (Count)
system.cpu.statIssuedInstType_0::SimdSha1Hash2            0      0.00%     68.80% # Number of instructions issued per FU type, per thread (Count)
system.cpu.statIssuedInstType_0::SimdSha256Hash            0      0.00%     68.80% # Number of instructions issued per FU type, per thread (Count)
system.cpu.statIssuedInstType_0::SimdSha256Hash2            0      0.00%     68.80% # Number of instructions issued per FU type, per thread (Count)
system.cpu.statIssuedInstType_0::SimdShaSigma2            0      0.00%     68.80% # Number of instructions issued per FU type, per thread (Count)
system.cpu.statIssuedInstType_0::SimdShaSigma3            0      0.00%     68.80% # Number of instructions issued per FU type, per thread (Count)
system.cpu.statIssuedInstType_0::SimdPredAlu            0      0.00%     68.80% # Number of instructions issued per FU type, per thread (Count)
system.cpu.statIssuedInstType_0::MemRead      1112327     17.43%     86.23% # Number of instructions issued per FU type, per thread (Count)
system.cpu.statIssuedInstType_0::MemWrite       878604     13.77%    100.00% # Number of instructions issued per FU type, per thread (Count)
system.cpu.statIssuedInstType_0::FloatMemRead            0      0.00%    100.00% # Number of instructions issued per FU type, per thread (Count)
system.cpu.statIssuedInstType_0::FloatMemWrite            0      0.00%    100.00% # Number of instructions issued per FU type, per thread (Count)
system.cpu.statIssuedInstType_0::IprAccess            0      0.00%    100.00% # Number of instructions issued per FU type, per thread (Count)
system.cpu.statIssuedInstType_0::InstPrefetch            0      0.00%    100.00% # Number of instructions issued per FU type, per thread (Count)
system.cpu.statIssuedInstType_0::total        6381049                       # Number of instructions issued per FU type, per thread (Count)
system.cpu.issueRate                         0.913397                       # Inst issue rate ((Count/Cycle))
system.cpu.fuBusy                              635971                       # FU busy when requested (Count)
system.cpu.fuBusyRate                        0.099666                       # FU busy rate (busy events/executed inst) ((Count/Count))
system.cpu.intInstQueueReads                 15123137                       # Number of integer instruction queue reads (Count)
system.cpu.intInstQueueWrites                 4066713                       # Number of integer instruction queue writes (Count)
system.cpu.intInstQueueWakeupAccesses         4027349                       # Number of integer instruction queue wakeup accesses (Count)
system.cpu.fpInstQueueReads                         0                       # Number of floating instruction queue reads (Count)
system.cpu.fpInstQueueWrites                        0                       # Number of floating instruction queue writes (Count)
system.cpu.fpInstQueueWakeupAccesses                0                       # Number of floating instruction queue wakeup accesses (Count)
system.cpu.vecInstQueueReads                  5239842                       # Number of vector instruction queue reads (Count)
system.cpu.vecInstQueueWrites                 2386040                       # Number of vector instruction queue writes (Count)
system.cpu.vecInstQueueWakeupAccesses         2333923                       # Number of vector instruction queue wakeup accesses (Count)
system.cpu.intAluAccesses                     4112325                       # Number of integer alu accesses (Count)
system.cpu.fpAluAccesses                            0                       # Number of floating point alu accesses (Count)
system.cpu.vecAluAccesses                     2886862                       # Number of vector alu accesses (Count)
system.cpu.numInsts                           6379679                       # Number of executed instructions (Count)
system.cpu.numLoadInsts                       1112097                       # Number of load instructions executed (Count)
system.cpu.numSquashedInsts                      1370                       # Number of squashed instructions skipped in execute (Count)
system.cpu.numSwp                                   0                       # Number of swp insts executed (Count)
system.cpu.numNop                                  86                       # Number of nop insts executed (Count)
system.cpu.numRefs                            1989729                       # Number of memory reference insts executed (Count)
system.cpu.numBranches                          20827                       # Number of branches executed (Count)
system.cpu.numStoreInsts                       877632                       # Number of stores executed (Count)
system.cpu.numRate                           0.913201                       # Inst execution rate ((Count/Cycle))
system.cpu.timesIdled                             190                       # Number of times that the entire CPU went into an idle state and unscheduled itself (Count)
system.cpu.idleCycles                           21429                       # Total number of cycles that the CPU has spent unscheduled due to idling (Cycle)
system.cpu.committedInsts                     6271044                       # Number of Instructions Simulated (Count)
system.cpu.committedOps                       6342475                       # Number of Ops (including micro ops) Simulated (Count)
system.cpu.cpi                               1.114020                       # CPI: Cycles Per Instruction ((Cycle/Count))
system.cpu.totalCpi                          1.114020                       # CPI: Total CPI of All Threads ((Cycle/Count))
system.cpu.ipc                               0.897650                       # IPC: Instructions Per Cycle ((Count/Cycle))
system.cpu.totalIpc                          0.897650                       # IPC: Total IPC of All Threads ((Count/Cycle))
system.cpu.intRegfileReads                    7566903                       # Number of integer regfile reads (Count)
system.cpu.intRegfileWrites                   3657004                       # Number of integer regfile writes (Count)
system.cpu.vecRegfileReads                    4583165                       # number of vector regfile reads (Count)
system.cpu.ccRegfileReads                       56613                       # number of cc regfile reads (Count)
system.cpu.ccRegfileWrites                      56706                       # number of cc regfile writes (Count)
system.cpu.miscRegfileReads                   4655205                       # number of misc regfile reads (Count)
system.cpu.miscRegfileWrites                      144                       # number of misc regfile writes (Count)
system.cpu.MemDepUnit__0.insertedLoads        1098364                       # Number of loads inserted to the mem dependence unit. (Count)
system.cpu.MemDepUnit__0.insertedStores        879717                       # Number of stores inserted to the mem dependence unit. (Count)
system.cpu.MemDepUnit__0.conflictingLoads        96655                       # Number of conflicting loads. (Count)
system.cpu.MemDepUnit__0.conflictingStores        15703                       # Number of conflicting stores. (Count)
system.cpu.MemDepUnit__1.insertedLoads              0                       # Number of loads inserted to the mem dependence unit. (Count)
system.cpu.MemDepUnit__1.insertedStores             0                       # Number of stores inserted to the mem dependence unit. (Count)
system.cpu.MemDepUnit__1.conflictingLoads            0                       # Number of conflicting loads. (Count)
system.cpu.MemDepUnit__1.conflictingStores            0                       # Number of conflicting stores. (Count)
system.cpu.MemDepUnit__2.insertedLoads              0                       # Number of loads inserted to the mem dependence unit. (Count)
system.cpu.MemDepUnit__2.insertedStores             0                       # Number of stores inserted to the mem dependence unit. (Count)
system.cpu.MemDepUnit__2.conflictingLoads            0                       # Number of conflicting loads. (Count)
system.cpu.MemDepUnit__2.conflictingStores            0                       # Number of conflicting stores. (Count)
system.cpu.MemDepUnit__3.insertedLoads              0                       # Number of loads inserted to the mem dependence unit. (Count)
system.cpu.MemDepUnit__3.insertedStores             0                       # Number of stores inserted to the mem dependence unit. (Count)
system.cpu.MemDepUnit__3.conflictingLoads            0                       # Number of conflicting loads. (Count)
system.cpu.MemDepUnit__3.conflictingStores            0                       # Number of conflicting stores. (Count)
system.cpu.branchPred.lookups                   22924                       # Number of BP lookups (Count)
system.cpu.branchPred.condPredicted             21470                       # Number of conditional branches predicted (Count)
system.cpu.branchPred.condIncorrect              1248                       # Number of conditional branches incorrect (Count)
system.cpu.branchPred.BTBLookups                19845                       # Number of BTB lookups (Count)
system.cpu.branchPred.BTBUpdates                  199                       # Number of BTB updates (Count)
system.cpu.branchPred.BTBHits                   19596                       # Number of BTB hits (Count)
system.cpu.branchPred.BTBHitRatio            0.987453                       # BTB Hit Ratio (Ratio)
system.cpu.branchPred.RASUsed                     369                       # Number of times the RAS was used to get a target. (Count)
system.cpu.branchPred.RASIncorrect                  8                       # Number of incorrect RAS predictions. (Count)
system.cpu.branchPred.indirectLookups             586                       # Number of indirect predictor lookups. (Count)
system.cpu.branchPred.indirectHits                 11                       # Number of indirect target hits. (Count)
system.cpu.branchPred.indirectMisses              575                       # Number of indirect misses. (Count)
system.cpu.branchPred.indirectMispredicted           79                       # Number of mispredicted indirect branches. (Count)
system.cpu.commit.commitSquashedInsts           52792                       # The number of squashed insts skipped by commit (Count)
system.cpu.commit.commitNonSpecStalls             145                       # The number of times commit has been forced to stall to communicate backwards (Count)
system.cpu.commit.branchMispredicts              1602                       # The number of times a branch was mispredicted (Count)
system.cpu.commit.numCommittedDist::samples      6957226                       # Number of insts commited each cycle (Count)
system.cpu.commit.numCommittedDist::mean     0.911643                       # Number of insts commited each cycle (Count)
system.cpu.commit.numCommittedDist::stdev     2.367049                       # Number of insts commited each cycle (Count)
system.cpu.commit.numCommittedDist::underflows            0      0.00%      0.00% # Number of insts commited each cycle (Count)
system.cpu.commit.numCommittedDist::0         5890453     84.67%     84.67% # Number of insts commited each cycle (Count)
system.cpu.commit.numCommittedDist::1          113804      1.64%     86.30% # Number of insts commited each cycle (Count)
system.cpu.commit.numCommittedDist::2           78585      1.13%     87.43% # Number of insts commited each cycle (Count)
system.cpu.commit.numCommittedDist::3           14311      0.21%     87.64% # Number of insts commited each cycle (Count)
system.cpu.commit.numCommittedDist::4          112213      1.61%     89.25% # Number of insts commited each cycle (Count)
system.cpu.commit.numCommittedDist::5           78530      1.13%     90.38% # Number of insts commited each cycle (Count)
system.cpu.commit.numCommittedDist::6           61664      0.89%     91.27% # Number of insts commited each cycle (Count)
system.cpu.commit.numCommittedDist::7           44216      0.64%     91.90% # Number of insts commited each cycle (Count)
system.cpu.commit.numCommittedDist::8          563450      8.10%    100.00% # Number of insts commited each cycle (Count)
system.cpu.commit.numCommittedDist::overflows            0      0.00%    100.00% # Number of insts commited each cycle (Count)
system.cpu.commit.numCommittedDist::min_value            0                       # Number of insts commited each cycle (Count)
system.cpu.commit.numCommittedDist::max_value            8                       # Number of insts commited each cycle (Count)
system.cpu.commit.numCommittedDist::total      6957226                       # Number of insts commited each cycle (Count)
system.cpu.commit.instsCommitted              6271074                       # Number of instructions committed (Count)
system.cpu.commit.opsCommitted                6342505                       # Number of ops (including micro ops) committed (Count)
system.cpu.commit.memRefs                     1962491                       # Number of memory references committed (Count)
system.cpu.commit.loads                       1087249                       # Number of loads committed (Count)
system.cpu.commit.amos                             72                       # Number of atomic instructions committed (Count)
system.cpu.commit.membars                          72                       # Number of memory barriers committed (Count)
system.cpu.commit.branches                      19959                       # Number of branches committed (Count)
system.cpu.commit.vectorInstructions          2333854                       # Number of committed Vector instructions. (Count)
system.cpu.commit.floating                          0                       # Number of committed floating point instructions. (Count)
system.cpu.commit.integer                     4671752                       # Number of committed integer instructions. (Count)
system.cpu.commit.functionCalls                   186                       # Number of function calls committed. (Count)
system.cpu.commit.committedInstType_0::No_OpClass        17400      0.27%      0.27% # Class of committed instruction (Count)
system.cpu.commit.committedInstType_0::IntAlu      2183079     34.42%     34.69% # Class of committed instruction (Count)
system.cpu.commit.committedInstType_0::IntMult           28      0.00%     34.69% # Class of committed instruction (Count)
system.cpu.commit.committedInstType_0::IntDiv            9      0.00%     34.69% # Class of committed instruction (Count)
system.cpu.commit.committedInstType_0::FloatAdd            0      0.00%     34.69% # Class of committed instruction (Count)
system.cpu.commit.committedInstType_0::FloatCmp            0      0.00%     34.69% # Class of committed instruction (Count)
system.cpu.commit.committedInstType_0::FloatCvt            0      0.00%     34.69% # Class of committed instruction (Count)
system.cpu.commit.committedInstType_0::FloatMult            0      0.00%     34.69% # Class of committed instruction (Count)
system.cpu.commit.committedInstType_0::FloatMultAcc            0      0.00%     34.69% # Class of committed instruction (Count)
system.cpu.commit.committedInstType_0::FloatDiv            0      0.00%     34.69% # Class of committed instruction (Count)
system.cpu.commit.committedInstType_0::FloatMisc            0      0.00%     34.69% # Class of committed instruction (Count)
system.cpu.commit.committedInstType_0::FloatSqrt            0      0.00%     34.69% # Class of committed instruction (Count)
system.cpu.commit.committedInstType_0::SimdAdd       544768      8.59%     43.28% # Class of committed instruction (Count)
system.cpu.commit.committedInstType_0::SimdAddAcc            0      0.00%     43.28% # Class of committed instruction (Count)
system.cpu.commit.committedInstType_0::SimdAlu      1089952     17.18%     60.47% # Class of committed instruction (Count)
system.cpu.commit.committedInstType_0::SimdCmp            0      0.00%     60.47% # Class of committed instruction (Count)
system.cpu.commit.committedInstType_0::SimdCvt            0      0.00%     60.47% # Class of committed instruction (Count)
system.cpu.commit.committedInstType_0::SimdMisc       544778      8.59%     69.06% # Class of committed instruction (Count)
system.cpu.commit.committedInstType_0::SimdMult            0      0.00%     69.06% # Class of committed instruction (Count)
system.cpu.commit.committedInstType_0::SimdMultAcc            0      0.00%     69.06% # Class of committed instruction (Count)
system.cpu.commit.committedInstType_0::SimdShift            0      0.00%     69.06% # Class of committed instruction (Count)
system.cpu.commit.committedInstType_0::SimdShiftAcc            0      0.00%     69.06% # Class of committed instruction (Count)
system.cpu.commit.committedInstType_0::SimdDiv            0      0.00%     69.06% # Class of committed instruction (Count)
system.cpu.commit.committedInstType_0::SimdSqrt            0      0.00%     69.06% # Class of committed instruction (Count)
system.cpu.commit.committedInstType_0::SimdFloatAdd            0      0.00%     69.06% # Class of committed instruction (Count)
system.cpu.commit.committedInstType_0::SimdFloatAlu            0      0.00%     69.06% # Class of committed instruction (Count)
system.cpu.commit.committedInstType_0::SimdFloatCmp            0      0.00%     69.06% # Class of committed instruction (Count)
system.cpu.commit.committedInstType_0::SimdFloatCvt            0      0.00%     69.06% # Class of committed instruction (Count)
system.cpu.commit.committedInstType_0::SimdFloatDiv            0      0.00%     69.06% # Class of committed instruction (Count)
system.cpu.commit.committedInstType_0::SimdFloatMisc            0      0.00%     69.06% # Class of committed instruction (Count)
system.cpu.commit.committedInstType_0::SimdFloatMult            0      0.00%     69.06% # Class of committed instruction (Count)
system.cpu.commit.committedInstType_0::SimdFloatMultAcc            0      0.00%     69.06% # Class of committed instruction (Count)
system.cpu.commit.committedInstType_0::SimdFloatSqrt            0      0.00%     69.06% # Class of committed instruction (Count)
system.cpu.commit.committedInstType_0::SimdReduceAdd            0      0.00%     69.06% # Class of committed instruction (Count)
system.cpu.commit.committedInstType_0::SimdReduceAlu            0      0.00%     69.06% # Class of committed instruction (Count)
system.cpu.commit.committedInstType_0::SimdReduceCmp            0      0.00%     69.06% # Class of committed instruction (Count)
system.cpu.commit.committedInstType_0::SimdFloatReduceAdd            0      0.00%     69.06% # Class of committed instruction (Count)
system.cpu.commit.committedInstType_0::SimdFloatReduceCmp            0      0.00%     69.06% # Class of committed instruction (Count)
system.cpu.commit.committedInstType_0::SimdAes            0      0.00%     69.06% # Class of committed instruction (Count)
system.cpu.commit.committedInstType_0::SimdAesMix            0      0.00%     69.06% # Class of committed instruction (Count)
system.cpu.commit.committedInstType_0::SimdSha1Hash            0      0.00%     69.06% # Class of committed instruction (Count)
system.cpu.commit.committedInstType_0::SimdSha1Hash2            0      0.00%     69.06% # Class of committed instruction (Count)
system.cpu.commit.committedInstType_0::SimdSha256Hash            0      0.00%     69.06% # Class of committed instruction (Count)
system.cpu.commit.committedInstType_0::SimdSha256Hash2            0      0.00%     69.06% # Class of committed instruction (Count)
system.cpu.commit.committedInstType_0::SimdShaSigma2            0      0.00%     69.06% # Class of committed instruction (Count)
system.cpu.commit.committedInstType_0::SimdShaSigma3            0      0.00%     69.06% # Class of committed instruction (Count)
system.cpu.commit.committedInstType_0::SimdPredAlu            0      0.00%     69.06% # Class of committed instruction (Count)
system.cpu.commit.committedInstType_0::MemRead      1087249     17.14%     86.20% # Class of committed instruction (Count)
system.cpu.commit.committedInstType_0::MemWrite       875242     13.80%    100.00% # Class of committed instruction (Count)
system.cpu.commit.committedInstType_0::FloatMemRead            0      0.00%    100.00% # Class of committed instruction (Count)
system.cpu.commit.committedInstType_0::FloatMemWrite            0      0.00%    100.00% # Class of committed instruction (Count)
system.cpu.commit.committedInstType_0::IprAccess            0      0.00%    100.00% # Class of committed instruction (Count)
system.cpu.commit.committedInstType_0::InstPrefetch            0      0.00%    100.00% # Class of committed instruction (Count)
system.cpu.commit.committedInstType_0::total      6342505                       # Class of committed instruction (Count)
system.cpu.commit.commitEligibleSamples        563450                       # number cycles where commit BW limit reached (Cycle)
system.cpu.dcache.demandHits::cpu.data        1546428                       # number of demand (read+write) hits (Count)
system.cpu.dcache.demandHits::total           1546428                       # number of demand (read+write) hits (Count)
system.cpu.dcache.overallHits::cpu.data       1546428                       # number of overall hits (Count)
system.cpu.dcache.overallHits::total          1546428                       # number of overall hits (Count)
system.cpu.dcache.demandMisses::cpu.data        90226                       # number of demand (read+write) misses (Count)
system.cpu.dcache.demandMisses::total           90226                       # number of demand (read+write) misses (Count)
system.cpu.dcache.overallMisses::cpu.data        90226                       # number of overall misses (Count)
system.cpu.dcache.overallMisses::total          90226                       # number of overall misses (Count)
system.cpu.dcache.demandMissLatency::cpu.data   6738073491                       # number of demand (read+write) miss ticks (Tick)
system.cpu.dcache.demandMissLatency::total   6738073491                       # number of demand (read+write) miss ticks (Tick)
system.cpu.dcache.overallMissLatency::cpu.data   6738073491                       # number of overall miss ticks (Tick)
system.cpu.dcache.overallMissLatency::total   6738073491                       # number of overall miss ticks (Tick)
system.cpu.dcache.demandAccesses::cpu.data      1636654                       # number of demand (read+write) accesses (Count)
system.cpu.dcache.demandAccesses::total       1636654                       # number of demand (read+write) accesses (Count)
system.cpu.dcache.overallAccesses::cpu.data      1636654                       # number of overall (read+write) accesses (Count)
system.cpu.dcache.overallAccesses::total      1636654                       # number of overall (read+write) accesses (Count)
system.cpu.dcache.demandMissRate::cpu.data     0.055128                       # miss rate for demand accesses (Ratio)
system.cpu.dcache.demandMissRate::total      0.055128                       # miss rate for demand accesses (Ratio)
system.cpu.dcache.overallMissRate::cpu.data     0.055128                       # miss rate for overall accesses (Ratio)
system.cpu.dcache.overallMissRate::total     0.055128                       # miss rate for overall accesses (Ratio)
system.cpu.dcache.demandAvgMissLatency::cpu.data 74679.953572                       # average overall miss latency in ticks ((Tick/Count))
system.cpu.dcache.demandAvgMissLatency::total 74679.953572                       # average overall miss latency in ticks ((Tick/Count))
system.cpu.dcache.overallAvgMissLatency::cpu.data 74679.953572                       # average overall miss latency ((Tick/Count))
system.cpu.dcache.overallAvgMissLatency::total 74679.953572                       # average overall miss latency ((Tick/Count))
system.cpu.dcache.blockedCycles::no_mshrs       312359                       # number of cycles access was blocked (Cycle)
system.cpu.dcache.blockedCycles::no_targets          254                       # number of cycles access was blocked (Cycle)
system.cpu.dcache.blockedCauses::no_mshrs         4728                       # number of times access was blocked (Count)
system.cpu.dcache.blockedCauses::no_targets            1                       # number of times access was blocked (Count)
system.cpu.dcache.avgBlocked::no_mshrs      66.065778                       # average number of cycles each access was blocked ((Cycle/Count))
system.cpu.dcache.avgBlocked::no_targets          254                       # average number of cycles each access was blocked ((Cycle/Count))
system.cpu.dcache.writebacks::writebacks        55753                       # number of writebacks (Count)
system.cpu.dcache.writebacks::total             55753                       # number of writebacks (Count)
system.cpu.dcache.demandMshrHits::cpu.data         8977                       # number of demand (read+write) MSHR hits (Count)
system.cpu.dcache.demandMshrHits::total          8977                       # number of demand (read+write) MSHR hits (Count)
system.cpu.dcache.overallMshrHits::cpu.data         8977                       # number of overall MSHR hits (Count)
system.cpu.dcache.overallMshrHits::total         8977                       # number of overall MSHR hits (Count)
system.cpu.dcache.demandMshrMisses::cpu.data        81249                       # number of demand (read+write) MSHR misses (Count)
system.cpu.dcache.demandMshrMisses::total        81249                       # number of demand (read+write) MSHR misses (Count)
system.cpu.dcache.overallMshrMisses::cpu.data        81249                       # number of overall MSHR misses (Count)
system.cpu.dcache.overallMshrMisses::total        81249                       # number of overall MSHR misses (Count)
system.cpu.dcache.demandMshrMissLatency::cpu.data   6160655498                       # number of demand (read+write) MSHR miss ticks (Tick)
system.cpu.dcache.demandMshrMissLatency::total   6160655498                       # number of demand (read+write) MSHR miss ticks (Tick)
system.cpu.dcache.overallMshrMissLatency::cpu.data   6160655498                       # number of overall MSHR miss ticks (Tick)
system.cpu.dcache.overallMshrMissLatency::total   6160655498                       # number of overall MSHR miss ticks (Tick)
system.cpu.dcache.demandMshrMissRate::cpu.data     0.049643                       # mshr miss ratio for demand accesses (Ratio)
system.cpu.dcache.demandMshrMissRate::total     0.049643                       # mshr miss ratio for demand accesses (Ratio)
system.cpu.dcache.overallMshrMissRate::cpu.data     0.049643                       # mshr miss ratio for overall accesses (Ratio)
system.cpu.dcache.overallMshrMissRate::total     0.049643                       # mshr miss ratio for overall accesses (Ratio)
system.cpu.dcache.demandAvgMshrMissLatency::cpu.data 75824.385506                       # average overall mshr miss latency ((Tick/Count))
system.cpu.dcache.demandAvgMshrMissLatency::total 75824.385506                       # average overall mshr miss latency ((Tick/Count))
system.cpu.dcache.overallAvgMshrMissLatency::cpu.data 75824.385506                       # average overall mshr miss latency ((Tick/Count))
system.cpu.dcache.overallAvgMshrMissLatency::total 75824.385506                       # average overall mshr miss latency ((Tick/Count))
system.cpu.dcache.replacements                  81251                       # number of replacements (Count)
system.cpu.dcache.ReadReq.hits::cpu.data       671331                       # number of ReadReq hits (Count)
system.cpu.dcache.ReadReq.hits::total          671331                       # number of ReadReq hits (Count)
system.cpu.dcache.ReadReq.misses::cpu.data        90153                       # number of ReadReq misses (Count)
system.cpu.dcache.ReadReq.misses::total         90153                       # number of ReadReq misses (Count)
system.cpu.dcache.ReadReq.missLatency::cpu.data   6730021000                       # number of ReadReq miss ticks (Tick)
system.cpu.dcache.ReadReq.missLatency::total   6730021000                       # number of ReadReq miss ticks (Tick)
system.cpu.dcache.ReadReq.accesses::cpu.data       761484                       # number of ReadReq accesses(hits+misses) (Count)
system.cpu.dcache.ReadReq.accesses::total       761484                       # number of ReadReq accesses(hits+misses) (Count)
system.cpu.dcache.ReadReq.missRate::cpu.data     0.118391                       # miss rate for ReadReq accesses (Ratio)
system.cpu.dcache.ReadReq.missRate::total     0.118391                       # miss rate for ReadReq accesses (Ratio)
system.cpu.dcache.ReadReq.avgMissLatency::cpu.data 74651.104234                       # average ReadReq miss latency ((Tick/Count))
system.cpu.dcache.ReadReq.avgMissLatency::total 74651.104234                       # average ReadReq miss latency ((Tick/Count))
system.cpu.dcache.ReadReq.mshrHits::cpu.data         8925                       # number of ReadReq MSHR hits (Count)
system.cpu.dcache.ReadReq.mshrHits::total         8925                       # number of ReadReq MSHR hits (Count)
system.cpu.dcache.ReadReq.mshrMisses::cpu.data        81228                       # number of ReadReq MSHR misses (Count)
system.cpu.dcache.ReadReq.mshrMisses::total        81228                       # number of ReadReq MSHR misses (Count)
system.cpu.dcache.ReadReq.mshrMissLatency::cpu.data   6158284500                       # number of ReadReq MSHR miss ticks (Tick)
system.cpu.dcache.ReadReq.mshrMissLatency::total   6158284500                       # number of ReadReq MSHR miss ticks (Tick)
system.cpu.dcache.ReadReq.mshrMissRate::cpu.data     0.106671                       # mshr miss rate for ReadReq accesses (Ratio)
system.cpu.dcache.ReadReq.mshrMissRate::total     0.106671                       # mshr miss rate for ReadReq accesses (Ratio)
system.cpu.dcache.ReadReq.avgMshrMissLatency::cpu.data 75814.799084                       # average ReadReq mshr miss latency ((Tick/Count))
system.cpu.dcache.ReadReq.avgMshrMissLatency::total 75814.799084                       # average ReadReq mshr miss latency ((Tick/Count))
system.cpu.dcache.SwapReq.hits::cpu.data           70                       # number of SwapReq hits (Count)
system.cpu.dcache.SwapReq.hits::total              70                       # number of SwapReq hits (Count)
system.cpu.dcache.SwapReq.misses::cpu.data            2                       # number of SwapReq misses (Count)
system.cpu.dcache.SwapReq.misses::total             2                       # number of SwapReq misses (Count)
system.cpu.dcache.SwapReq.missLatency::cpu.data       202000                       # number of SwapReq miss ticks (Tick)
system.cpu.dcache.SwapReq.missLatency::total       202000                       # number of SwapReq miss ticks (Tick)
system.cpu.dcache.SwapReq.accesses::cpu.data           72                       # number of SwapReq accesses(hits+misses) (Count)
system.cpu.dcache.SwapReq.accesses::total           72                       # number of SwapReq accesses(hits+misses) (Count)
system.cpu.dcache.SwapReq.missRate::cpu.data     0.027778                       # miss rate for SwapReq accesses (Ratio)
system.cpu.dcache.SwapReq.missRate::total     0.027778                       # miss rate for SwapReq accesses (Ratio)
system.cpu.dcache.SwapReq.avgMissLatency::cpu.data       101000                       # average SwapReq miss latency ((Tick/Count))
system.cpu.dcache.SwapReq.avgMissLatency::total       101000                       # average SwapReq miss latency ((Tick/Count))
system.cpu.dcache.SwapReq.mshrMisses::cpu.data            2                       # number of SwapReq MSHR misses (Count)
system.cpu.dcache.SwapReq.mshrMisses::total            2                       # number of SwapReq MSHR misses (Count)
system.cpu.dcache.SwapReq.mshrMissLatency::cpu.data       200000                       # number of SwapReq MSHR miss ticks (Tick)
system.cpu.dcache.SwapReq.mshrMissLatency::total       200000                       # number of SwapReq MSHR miss ticks (Tick)
system.cpu.dcache.SwapReq.mshrMissRate::cpu.data     0.027778                       # mshr miss rate for SwapReq accesses (Ratio)
system.cpu.dcache.SwapReq.mshrMissRate::total     0.027778                       # mshr miss rate for SwapReq accesses (Ratio)
system.cpu.dcache.SwapReq.avgMshrMissLatency::cpu.data       100000                       # average SwapReq mshr miss latency ((Tick/Count))
system.cpu.dcache.SwapReq.avgMshrMissLatency::total       100000                       # average SwapReq mshr miss latency ((Tick/Count))
system.cpu.dcache.WriteReq.hits::cpu.data       875097                       # number of WriteReq hits (Count)
system.cpu.dcache.WriteReq.hits::total         875097                       # number of WriteReq hits (Count)
system.cpu.dcache.WriteReq.misses::cpu.data           73                       # number of WriteReq misses (Count)
system.cpu.dcache.WriteReq.misses::total           73                       # number of WriteReq misses (Count)
system.cpu.dcache.WriteReq.missLatency::cpu.data      8052491                       # number of WriteReq miss ticks (Tick)
system.cpu.dcache.WriteReq.missLatency::total      8052491                       # number of WriteReq miss ticks (Tick)
system.cpu.dcache.WriteReq.accesses::cpu.data       875170                       # number of WriteReq accesses(hits+misses) (Count)
system.cpu.dcache.WriteReq.accesses::total       875170                       # number of WriteReq accesses(hits+misses) (Count)
system.cpu.dcache.WriteReq.missRate::cpu.data     0.000083                       # miss rate for WriteReq accesses (Ratio)
system.cpu.dcache.WriteReq.missRate::total     0.000083                       # miss rate for WriteReq accesses (Ratio)
system.cpu.dcache.WriteReq.avgMissLatency::cpu.data 110308.095890                       # average WriteReq miss latency ((Tick/Count))
system.cpu.dcache.WriteReq.avgMissLatency::total 110308.095890                       # average WriteReq miss latency ((Tick/Count))
system.cpu.dcache.WriteReq.mshrHits::cpu.data           52                       # number of WriteReq MSHR hits (Count)
system.cpu.dcache.WriteReq.mshrHits::total           52                       # number of WriteReq MSHR hits (Count)
system.cpu.dcache.WriteReq.mshrMisses::cpu.data           21                       # number of WriteReq MSHR misses (Count)
system.cpu.dcache.WriteReq.mshrMisses::total           21                       # number of WriteReq MSHR misses (Count)
system.cpu.dcache.WriteReq.mshrMissLatency::cpu.data      2370998                       # number of WriteReq MSHR miss ticks (Tick)
system.cpu.dcache.WriteReq.mshrMissLatency::total      2370998                       # number of WriteReq MSHR miss ticks (Tick)
system.cpu.dcache.WriteReq.mshrMissRate::cpu.data     0.000024                       # mshr miss rate for WriteReq accesses (Ratio)
system.cpu.dcache.WriteReq.mshrMissRate::total     0.000024                       # mshr miss rate for WriteReq accesses (Ratio)
system.cpu.dcache.WriteReq.avgMshrMissLatency::cpu.data 112904.666667                       # average WriteReq mshr miss latency ((Tick/Count))
system.cpu.dcache.WriteReq.avgMshrMissLatency::total 112904.666667                       # average WriteReq mshr miss latency ((Tick/Count))
system.cpu.dcache.power_state.pwrStateResidencyTicks::UNDEFINED   4483195000                       # Cumulative time (in ticks) in various power states (Tick)
system.cpu.dcache.tags.tagsInUse                 1024                       # Average ticks per tags in use ((Tick/Count))
system.cpu.dcache.tags.totalRefs              1682502                       # Total number of references to valid blocks. (Count)
system.cpu.dcache.tags.sampledRefs              82275                       # Sample count of references to valid blocks. (Count)
system.cpu.dcache.tags.avgRefs              20.449736                       # Average number of references to valid blocks. ((Count/Count))
system.cpu.dcache.tags.warmupTick                   0                       # The tick when the warmup percentage was hit. (Tick)
system.cpu.dcache.tags.occupancies::cpu.data         1024                       # Average occupied blocks per tick, per requestor ((Count/Tick))
system.cpu.dcache.tags.avgOccs::cpu.data            1                       # Average percentage of cache occupancy ((Ratio/Tick))
system.cpu.dcache.tags.avgOccs::total               1                       # Average percentage of cache occupancy ((Ratio/Tick))
system.cpu.dcache.tags.occupanciesTaskId::1024         1024                       # Occupied blocks per task id (Count)
system.cpu.dcache.tags.ageTaskId_1024::0           89                       # Occupied blocks per task id, per block age (Count)
system.cpu.dcache.tags.ageTaskId_1024::1          808                       # Occupied blocks per task id, per block age (Count)
system.cpu.dcache.tags.ageTaskId_1024::2          123                       # Occupied blocks per task id, per block age (Count)
system.cpu.dcache.tags.ageTaskId_1024::3            4                       # Occupied blocks per task id, per block age (Count)
system.cpu.dcache.tags.ratioOccsTaskId::1024            1                       # Ratio of occupied blocks and all blocks, per task id (Ratio)
system.cpu.dcache.tags.tagAccesses            6628155                       # Number of tag accesses (Count)
system.cpu.dcache.tags.dataAccesses           6628155                       # Number of data accesses (Count)
system.cpu.dcache.tags.power_state.pwrStateResidencyTicks::UNDEFINED   4483195000                       # Cumulative time (in ticks) in various power states (Tick)
system.cpu.decode.idleCycles                   226908                       # Number of cycles decode is idle (Cycle)
system.cpu.decode.blockedCycles               5918032                       # Number of cycles decode is blocked (Cycle)
system.cpu.decode.runCycles                    678485                       # Number of cycles decode is running (Cycle)
system.cpu.decode.unblockCycles                139317                       # Number of cycles decode is unblocking (Cycle)
system.cpu.decode.squashCycles                   1895                       # Number of cycles decode is squashing (Cycle)
system.cpu.decode.branchResolved                19475                       # Number of times decode resolved a branch (Count)
system.cpu.decode.branchMispred                    75                       # Number of times decode detected a branch misprediction (Count)
system.cpu.decode.decodedInsts                6423838                       # Number of instructions handled by decode (Count)
system.cpu.decode.squashedInsts                   259                       # Number of squashed instructions handled by decode (Count)
system.cpu.fetch.icacheStallCycles             409650                       # Number of cycles fetch is stalled on an Icache miss (Cycle)
system.cpu.fetch.insts                        6383165                       # Number of instructions fetch has processed (Count)
system.cpu.fetch.branches                       22924                       # Number of branches that fetch encountered (Count)
system.cpu.fetch.predictedBranches              19976                       # Number of branches that fetch has predicted taken (Count)
system.cpu.fetch.cycles                       6549809                       # Number of cycles fetch has run and was not squashing or blocked (Cycle)
system.cpu.fetch.squashCycles                    3930                       # Number of cycles fetch has spent squashing (Cycle)
system.cpu.fetch.miscStallCycles                  432                       # Number of cycles fetch has spent waiting on interrupts, or bad addresses, or out of MSHRs (Cycle)
system.cpu.fetch.pendingTrapStallCycles          2748                       # Number of stall cycles due to pending traps (Cycle)
system.cpu.fetch.icacheWaitRetryStallCycles           33                       # Number of stall cycles due to full MSHR (Cycle)
system.cpu.fetch.cacheLines                    403809                       # Number of cache lines fetched (Count)
system.cpu.fetch.icacheSquashes                  1092                       # Number of outstanding Icache misses that were squashed (Count)
system.cpu.fetch.nisnDist::samples            6964637                       # Number of instructions fetched each cycle (Total) (Count)
system.cpu.fetch.nisnDist::mean              0.927309                       # Number of instructions fetched each cycle (Total) (Count)
system.cpu.fetch.nisnDist::stdev             2.550568                       # Number of instructions fetched each cycle (Total) (Count)
system.cpu.fetch.nisnDist::underflows               0      0.00%      0.00% # Number of instructions fetched each cycle (Total) (Count)
system.cpu.fetch.nisnDist::0                  6137017     88.12%     88.12% # Number of instructions fetched each cycle (Total) (Count)
system.cpu.fetch.nisnDist::1                     1369      0.02%     88.14% # Number of instructions fetched each cycle (Total) (Count)
system.cpu.fetch.nisnDist::2                    22768      0.33%     88.46% # Number of instructions fetched each cycle (Total) (Count)
system.cpu.fetch.nisnDist::3                      455      0.01%     88.47% # Number of instructions fetched each cycle (Total) (Count)
system.cpu.fetch.nisnDist::4                      454      0.01%     88.48% # Number of instructions fetched each cycle (Total) (Count)
system.cpu.fetch.nisnDist::5                      564      0.01%     88.48% # Number of instructions fetched each cycle (Total) (Count)
system.cpu.fetch.nisnDist::6                     4658      0.07%     88.55% # Number of instructions fetched each cycle (Total) (Count)
system.cpu.fetch.nisnDist::7                     1298      0.02%     88.57% # Number of instructions fetched each cycle (Total) (Count)
system.cpu.fetch.nisnDist::8                   796054     11.43%    100.00% # Number of instructions fetched each cycle (Total) (Count)
system.cpu.fetch.nisnDist::overflows                0      0.00%    100.00% # Number of instructions fetched each cycle (Total) (Count)
system.cpu.fetch.nisnDist::min_value                0                       # Number of instructions fetched each cycle (Total) (Count)
system.cpu.fetch.nisnDist::max_value                8                       # Number of instructions fetched each cycle (Total) (Count)
system.cpu.fetch.nisnDist::total              6964637                       # Number of instructions fetched each cycle (Total) (Count)
system.cpu.fetch.branchRate                  0.003281                       # Number of branch fetches per cycle (Ratio)
system.cpu.fetch.rate                        0.913699                       # Number of inst fetches per cycle ((Count/Cycle))
system.cpu.icache.demandHits::cpu.inst         403511                       # number of demand (read+write) hits (Count)
system.cpu.icache.demandHits::total            403511                       # number of demand (read+write) hits (Count)
system.cpu.icache.overallHits::cpu.inst        403511                       # number of overall hits (Count)
system.cpu.icache.overallHits::total           403511                       # number of overall hits (Count)
system.cpu.icache.demandMisses::cpu.inst          298                       # number of demand (read+write) misses (Count)
system.cpu.icache.demandMisses::total             298                       # number of demand (read+write) misses (Count)
system.cpu.icache.overallMisses::cpu.inst          298                       # number of overall misses (Count)
system.cpu.icache.overallMisses::total            298                       # number of overall misses (Count)
system.cpu.icache.demandMissLatency::cpu.inst     24078499                       # number of demand (read+write) miss ticks (Tick)
system.cpu.icache.demandMissLatency::total     24078499                       # number of demand (read+write) miss ticks (Tick)
system.cpu.icache.overallMissLatency::cpu.inst     24078499                       # number of overall miss ticks (Tick)
system.cpu.icache.overallMissLatency::total     24078499                       # number of overall miss ticks (Tick)
system.cpu.icache.demandAccesses::cpu.inst       403809                       # number of demand (read+write) accesses (Count)
system.cpu.icache.demandAccesses::total        403809                       # number of demand (read+write) accesses (Count)
system.cpu.icache.overallAccesses::cpu.inst       403809                       # number of overall (read+write) accesses (Count)
system.cpu.icache.overallAccesses::total       403809                       # number of overall (read+write) accesses (Count)
system.cpu.icache.demandMissRate::cpu.inst     0.000738                       # miss rate for demand accesses (Ratio)
system.cpu.icache.demandMissRate::total      0.000738                       # miss rate for demand accesses (Ratio)
system.cpu.icache.overallMissRate::cpu.inst     0.000738                       # miss rate for overall accesses (Ratio)
system.cpu.icache.overallMissRate::total     0.000738                       # miss rate for overall accesses (Ratio)
system.cpu.icache.demandAvgMissLatency::cpu.inst 80800.332215                       # average overall miss latency in ticks ((Tick/Count))
system.cpu.icache.demandAvgMissLatency::total 80800.332215                       # average overall miss latency in ticks ((Tick/Count))
system.cpu.icache.overallAvgMissLatency::cpu.inst 80800.332215                       # average overall miss latency ((Tick/Count))
system.cpu.icache.overallAvgMissLatency::total 80800.332215                       # average overall miss latency ((Tick/Count))
system.cpu.icache.blockedCycles::no_mshrs          152                       # number of cycles access was blocked (Cycle)
system.cpu.icache.blockedCycles::no_targets            0                       # number of cycles access was blocked (Cycle)
system.cpu.icache.blockedCauses::no_mshrs            2                       # number of times access was blocked (Count)
system.cpu.icache.blockedCauses::no_targets            0                       # number of times access was blocked (Count)
system.cpu.icache.avgBlocked::no_mshrs             76                       # average number of cycles each access was blocked ((Cycle/Count))
system.cpu.icache.avgBlocked::no_targets          nan                       # average number of cycles each access was blocked ((Cycle/Count))
system.cpu.icache.writebacks::writebacks          231                       # number of writebacks (Count)
system.cpu.icache.writebacks::total               231                       # number of writebacks (Count)
system.cpu.icache.demandMshrHits::cpu.inst           67                       # number of demand (read+write) MSHR hits (Count)
system.cpu.icache.demandMshrHits::total            67                       # number of demand (read+write) MSHR hits (Count)
system.cpu.icache.overallMshrHits::cpu.inst           67                       # number of overall MSHR hits (Count)
system.cpu.icache.overallMshrHits::total           67                       # number of overall MSHR hits (Count)
system.cpu.icache.demandMshrMisses::cpu.inst          231                       # number of demand (read+write) MSHR misses (Count)
system.cpu.icache.demandMshrMisses::total          231                       # number of demand (read+write) MSHR misses (Count)
system.cpu.icache.overallMshrMisses::cpu.inst          231                       # number of overall MSHR misses (Count)
system.cpu.icache.overallMshrMisses::total          231                       # number of overall MSHR misses (Count)
system.cpu.icache.demandMshrMissLatency::cpu.inst     18697999                       # number of demand (read+write) MSHR miss ticks (Tick)
system.cpu.icache.demandMshrMissLatency::total     18697999                       # number of demand (read+write) MSHR miss ticks (Tick)
system.cpu.icache.overallMshrMissLatency::cpu.inst     18697999                       # number of overall MSHR miss ticks (Tick)
system.cpu.icache.overallMshrMissLatency::total     18697999                       # number of overall MSHR miss ticks (Tick)
system.cpu.icache.demandMshrMissRate::cpu.inst     0.000572                       # mshr miss ratio for demand accesses (Ratio)
system.cpu.icache.demandMshrMissRate::total     0.000572                       # mshr miss ratio for demand accesses (Ratio)
system.cpu.icache.overallMshrMissRate::cpu.inst     0.000572                       # mshr miss ratio for overall accesses (Ratio)
system.cpu.icache.overallMshrMissRate::total     0.000572                       # mshr miss ratio for overall accesses (Ratio)
system.cpu.icache.demandAvgMshrMissLatency::cpu.inst 80943.718615                       # average overall mshr miss latency ((Tick/Count))
system.cpu.icache.demandAvgMshrMissLatency::total 80943.718615                       # average overall mshr miss latency ((Tick/Count))
system.cpu.icache.overallAvgMshrMissLatency::cpu.inst 80943.718615                       # average overall mshr miss latency ((Tick/Count))
system.cpu.icache.overallAvgMshrMissLatency::total 80943.718615                       # average overall mshr miss latency ((Tick/Count))
system.cpu.icache.replacements                    231                       # number of replacements (Count)
system.cpu.icache.ReadReq.hits::cpu.inst       403511                       # number of ReadReq hits (Count)
system.cpu.icache.ReadReq.hits::total          403511                       # number of ReadReq hits (Count)
system.cpu.icache.ReadReq.misses::cpu.inst          298                       # number of ReadReq misses (Count)
system.cpu.icache.ReadReq.misses::total           298                       # number of ReadReq misses (Count)
system.cpu.icache.ReadReq.missLatency::cpu.inst     24078499                       # number of ReadReq miss ticks (Tick)
system.cpu.icache.ReadReq.missLatency::total     24078499                       # number of ReadReq miss ticks (Tick)
system.cpu.icache.ReadReq.accesses::cpu.inst       403809                       # number of ReadReq accesses(hits+misses) (Count)
system.cpu.icache.ReadReq.accesses::total       403809                       # number of ReadReq accesses(hits+misses) (Count)
system.cpu.icache.ReadReq.missRate::cpu.inst     0.000738                       # miss rate for ReadReq accesses (Ratio)
system.cpu.icache.ReadReq.missRate::total     0.000738                       # miss rate for ReadReq accesses (Ratio)
system.cpu.icache.ReadReq.avgMissLatency::cpu.inst 80800.332215                       # average ReadReq miss latency ((Tick/Count))
system.cpu.icache.ReadReq.avgMissLatency::total 80800.332215                       # average ReadReq miss latency ((Tick/Count))
system.cpu.icache.ReadReq.mshrHits::cpu.inst           67                       # number of ReadReq MSHR hits (Count)
system.cpu.icache.ReadReq.mshrHits::total           67                       # number of ReadReq MSHR hits (Count)
system.cpu.icache.ReadReq.mshrMisses::cpu.inst          231                       # number of ReadReq MSHR misses (Count)
system.cpu.icache.ReadReq.mshrMisses::total          231                       # number of ReadReq MSHR misses (Count)
system.cpu.icache.ReadReq.mshrMissLatency::cpu.inst     18697999                       # number of ReadReq MSHR miss ticks (Tick)
system.cpu.icache.ReadReq.mshrMissLatency::total     18697999                       # number of ReadReq MSHR miss ticks (Tick)
system.cpu.icache.ReadReq.mshrMissRate::cpu.inst     0.000572                       # mshr miss rate for ReadReq accesses (Ratio)
system.cpu.icache.ReadReq.mshrMissRate::total     0.000572                       # mshr miss rate for ReadReq accesses (Ratio)
system.cpu.icache.ReadReq.avgMshrMissLatency::cpu.inst 80943.718615                       # average ReadReq mshr miss latency ((Tick/Count))
system.cpu.icache.ReadReq.avgMshrMissLatency::total 80943.718615                       # average ReadReq mshr miss latency ((Tick/Count))
system.cpu.icache.power_state.pwrStateResidencyTicks::UNDEFINED   4483195000                       # Cumulative time (in ticks) in various power states (Tick)
system.cpu.icache.tags.tagsInUse                  256                       # Average ticks per tags in use ((Tick/Count))
system.cpu.icache.tags.totalRefs               484319                       # Total number of references to valid blocks. (Count)
system.cpu.icache.tags.sampledRefs                487                       # Sample count of references to valid blocks. (Count)
system.cpu.icache.tags.avgRefs             994.494867                       # Average number of references to valid blocks. ((Count/Count))
system.cpu.icache.tags.warmupTick                   0                       # The tick when the warmup percentage was hit. (Tick)
system.cpu.icache.tags.occupancies::cpu.inst          256                       # Average occupied blocks per tick, per requestor ((Count/Tick))
system.cpu.icache.tags.avgOccs::cpu.inst            1                       # Average percentage of cache occupancy ((Ratio/Tick))
system.cpu.icache.tags.avgOccs::total               1                       # Average percentage of cache occupancy ((Ratio/Tick))
system.cpu.icache.tags.occupanciesTaskId::1024          256                       # Occupied blocks per task id (Count)
system.cpu.icache.tags.ageTaskId_1024::0           74                       # Occupied blocks per task id, per block age (Count)
system.cpu.icache.tags.ageTaskId_1024::1           88                       # Occupied blocks per task id, per block age (Count)
system.cpu.icache.tags.ageTaskId_1024::3           94                       # Occupied blocks per task id, per block age (Count)
system.cpu.icache.tags.ratioOccsTaskId::1024            1                       # Ratio of occupied blocks and all blocks, per task id (Ratio)
system.cpu.icache.tags.tagAccesses            1615467                       # Number of tag accesses (Count)
system.cpu.icache.tags.dataAccesses           1615467                       # Number of data accesses (Count)
system.cpu.icache.tags.power_state.pwrStateResidencyTicks::UNDEFINED   4483195000                       # Cumulative time (in ticks) in various power states (Tick)
system.cpu.iew.idleCycles                           0                       # Number of cycles IEW is idle (Cycle)
system.cpu.iew.squashCycles                      1895                       # Number of cycles IEW is squashing (Cycle)
system.cpu.iew.blockCycles                    1350542                       # Number of cycles IEW is blocking (Cycle)
system.cpu.iew.unblockCycles                    35956                       # Number of cycles IEW is unblocking (Cycle)
system.cpu.iew.dispatchedInsts                6397596                       # Number of instructions dispatched to IQ (Count)
system.cpu.iew.dispSquashedInsts                   74                       # Number of squashed instructions skipped by dispatch (Count)
system.cpu.iew.dispLoadInsts                  1098364                       # Number of dispatched load instructions (Count)
system.cpu.iew.dispStoreInsts                  879717                       # Number of dispatched store instructions (Count)
system.cpu.iew.dispNonSpecInsts                   244                       # Number of dispatched non-speculative instructions (Count)
system.cpu.iew.iqFullEvents                      7316                       # Number of times the IQ has become full, causing a stall (Count)
system.cpu.iew.lsqFullEvents                    26350                       # Number of times the LSQ has become full, causing a stall (Count)
system.cpu.iew.memOrderViolationEvents            189                       # Number of memory order violations (Count)
system.cpu.iew.predictedTakenIncorrect            997                       # Number of branches that were predicted taken incorrectly (Count)
system.cpu.iew.predictedNotTakenIncorrect          690                       # Number of branches that were predicted not taken incorrectly (Count)
system.cpu.iew.branchMispredicts                 1687                       # Number of branch mispredicts detected at execute (Count)
system.cpu.iew.instsToCommit                  6362159                       # Cumulative count of insts sent to commit (Count)
system.cpu.iew.writebackCount                 6361272                       # Cumulative count of insts written-back (Count)
system.cpu.iew.producerInst                   5210949                       # Number of instructions producing a value (Count)
system.cpu.iew.consumerInst                   5515847                       # Number of instructions consuming a value (Count)
system.cpu.iew.wbRate                        0.910566                       # Insts written-back per cycle ((Count/Cycle))
system.cpu.iew.wbFanout                      0.944723                       # Average fanout of values written-back ((Count/Count))
system.cpu.lsq0.forwLoads                      333437                       # Number of loads that had data forwarded from stores (Count)
system.cpu.lsq0.squashedLoads                   11115                       # Number of loads squashed (Count)
system.cpu.lsq0.ignoredResponses                   13                       # Number of memory responses ignored because the instruction is squashed (Count)
system.cpu.lsq0.memOrderViolation                 189                       # Number of memory ordering violations (Count)
system.cpu.lsq0.squashedStores                   4482                       # Number of stores squashed (Count)
system.cpu.lsq0.rescheduledLoads                   46                       # Number of loads that were rescheduled (Count)
system.cpu.lsq0.blockedByCache                   4248                       # Number of times an access to memory failed due to the cache being blocked (Count)
system.cpu.lsq0.loadToUse::samples            1087249                       # Distribution of cycle latency between the first time a load is issued and its completion (Unspecified)
system.cpu.lsq0.loadToUse::mean             15.970014                       # Distribution of cycle latency between the first time a load is issued and its completion (Unspecified)
system.cpu.lsq0.loadToUse::stdev            51.807019                       # Distribution of cycle latency between the first time a load is issued and its completion (Unspecified)
system.cpu.lsq0.loadToUse::0-9                 993419     91.37%     91.37% # Distribution of cycle latency between the first time a load is issued and its completion (Unspecified)
system.cpu.lsq0.loadToUse::10-19                   57      0.01%     91.38% # Distribution of cycle latency between the first time a load is issued and its completion (Unspecified)
system.cpu.lsq0.loadToUse::20-29                15299      1.41%     92.78% # Distribution of cycle latency between the first time a load is issued and its completion (Unspecified)
system.cpu.lsq0.loadToUse::30-39                  112      0.01%     92.79% # Distribution of cycle latency between the first time a load is issued and its completion (Unspecified)
system.cpu.lsq0.loadToUse::40-49                   32      0.00%     92.80% # Distribution of cycle latency between the first time a load is issued and its completion (Unspecified)
system.cpu.lsq0.loadToUse::50-59                   45      0.00%     92.80% # Distribution of cycle latency between the first time a load is issued and its completion (Unspecified)
system.cpu.lsq0.loadToUse::60-69                   37      0.00%     92.80% # Distribution of cycle latency between the first time a load is issued and its completion (Unspecified)
system.cpu.lsq0.loadToUse::70-79                   33      0.00%     92.81% # Distribution of cycle latency between the first time a load is issued and its completion (Unspecified)
system.cpu.lsq0.loadToUse::80-89                   34      0.00%     92.81% # Distribution of cycle latency between the first time a load is issued and its completion (Unspecified)
system.cpu.lsq0.loadToUse::90-99                   32      0.00%     92.81% # Distribution of cycle latency between the first time a load is issued and its completion (Unspecified)
system.cpu.lsq0.loadToUse::100-109                 94      0.01%     92.82% # Distribution of cycle latency between the first time a load is issued and its completion (Unspecified)
system.cpu.lsq0.loadToUse::110-119                154      0.01%     92.84% # Distribution of cycle latency between the first time a load is issued and its completion (Unspecified)
system.cpu.lsq0.loadToUse::120-129                391      0.04%     92.87% # Distribution of cycle latency between the first time a load is issued and its completion (Unspecified)
system.cpu.lsq0.loadToUse::130-139               1676      0.15%     93.03% # Distribution of cycle latency between the first time a load is issued and its completion (Unspecified)
system.cpu.lsq0.loadToUse::140-149              55518      5.11%     98.13% # Distribution of cycle latency between the first time a load is issued and its completion (Unspecified)
system.cpu.lsq0.loadToUse::150-159               1904      0.18%     98.31% # Distribution of cycle latency between the first time a load is issued and its completion (Unspecified)
system.cpu.lsq0.loadToUse::160-169               1499      0.14%     98.44% # Distribution of cycle latency between the first time a load is issued and its completion (Unspecified)
system.cpu.lsq0.loadToUse::170-179               4167      0.38%     98.83% # Distribution of cycle latency between the first time a load is issued and its completion (Unspecified)
[...]
system.mem_ctrls.dram.perBankWrBursts::7         2982                       # Per bank write bursts (Count)
system.mem_ctrls.dram.perBankWrBursts::8         4406                       # Per bank write bursts (Count)
system.mem_ctrls.dram.perBankWrBursts::9         4013                       # Per bank write bursts (Count)
system.mem_ctrls.dram.perBankWrBursts::10         2841                       # Per bank write bursts (Count)
system.mem_ctrls.dram.perBankWrBursts::11         3951                       # Per bank write bursts (Count)
system.mem_ctrls.dram.perBankWrBursts::12         3062                       # Per bank write bursts (Count)
system.mem_ctrls.dram.perBankWrBursts::13         3043                       # Per bank write bursts (Count)
system.mem_ctrls.dram.perBankWrBursts::14         3965                       # Per bank write bursts (Count)
system.mem_ctrls.dram.perBankWrBursts::15         2610                       # Per bank write bursts (Count)
system.mem_ctrls.dram.totQLat              1042055750                       # Total ticks spent queuing (Tick)
system.mem_ctrls.dram.totBusLat             349310000                       # Total ticks spent in databus transfers (Tick)
system.mem_ctrls.dram.totMemAccLat         2351968250                       # Total ticks spent from burst creation until serviced by the DRAM (Tick)
system.mem_ctrls.dram.avgQLat                14915.92                       # Average queueing delay per DRAM burst ((Tick/Count))
system.mem_ctrls.dram.avgBusLat               5000.00                       # Average bus latency per DRAM burst ((Tick/Count))
system.mem_ctrls.dram.avgMemAccLat           33665.92                       # Average memory access latency per DRAM burst ((Tick/Count))
system.mem_ctrls.dram.readRowHits               63099                       # Number of row buffer hits during reads (Count)
system.mem_ctrls.dram.writeRowHits              48518                       # Number of row buffer hits during writes (Count)
system.mem_ctrls.dram.readRowHitRate            90.32                       # Row buffer hit rate for reads (Ratio)
system.mem_ctrls.dram.writeRowHitRate           89.99                       # Row buffer hit rate for writes (Ratio)
system.mem_ctrls.dram.bytesPerActivate::samples        12153                       # Bytes accessed per row activation (Byte)
system.mem_ctrls.dram.bytesPerActivate::mean   651.669876                       # Bytes accessed per row activation (Byte)
system.mem_ctrls.dram.bytesPerActivate::gmean   509.368362                       # Bytes accessed per row activation (Byte)
system.mem_ctrls.dram.bytesPerActivate::stdev   349.222596                       # Bytes accessed per row activation (Byte)
system.mem_ctrls.dram.bytesPerActivate::0-127          758      6.24%      6.24% # Bytes accessed per row activation (Byte)
system.mem_ctrls.dram.bytesPerActivate::128-255         1440     11.85%     18.09% # Bytes accessed per row activation (Byte)
system.mem_ctrls.dram.bytesPerActivate::256-383         1020      8.39%     26.48% # Bytes accessed per row activation (Byte)
system.mem_ctrls.dram.bytesPerActivate::384-511         1193      9.82%     36.30% # Bytes accessed per row activation (Byte)
system.mem_ctrls.dram.bytesPerActivate::512-639          999      8.22%     44.52% # Bytes accessed per row activation (Byte)
system.mem_ctrls.dram.bytesPerActivate::640-767          809      6.66%     51.17% # Bytes accessed per row activation (Byte)
system.mem_ctrls.dram.bytesPerActivate::768-895         1029      8.47%     59.64% # Bytes accessed per row activation (Byte)
system.mem_ctrls.dram.bytesPerActivate::896-1023          723      5.95%     65.59% # Bytes accessed per row activation (Byte)
system.mem_ctrls.dram.bytesPerActivate::1024-1151         4182     34.41%    100.00% # Bytes accessed per row activation (Byte)
system.mem_ctrls.dram.bytesPerActivate::total        12153                       # Bytes accessed per row activation (Byte)
system.mem_ctrls.dram.bytesRead               4471168                       # Total bytes read (Byte)
system.mem_ctrls.dram.bytesWritten            3450688                       # Total bytes written (Byte)
system.mem_ctrls.dram.avgRdBW             1280.024552                       # Average DRAM read bandwidth in MiBytes/s ((Byte/Second))
system.mem_ctrls.dram.avgWrBW              987.877297                       # Average DRAM write bandwidth in MiBytes/s ((Byte/Second))
system.mem_ctrls.dram.peakBW                 12800.00                       # Theoretical peak bandwidth in MiByte/s ((Byte/Second))
system.mem_ctrls.dram.busUtil                   17.72                       # Data bus utilization in percentage (Ratio)
system.mem_ctrls.dram.busUtilRead               10.00                       # Data bus utilization in percentage for reads (Ratio)
system.mem_ctrls.dram.busUtilWrite               7.72                       # Data bus utilization in percentage for writes (Ratio)
system.mem_ctrls.dram.pageHitRate               90.17                       # Row buffer hit rate, read and write combined (Ratio)
system.mem_ctrls.dram.power_state.pwrStateResidencyTicks::UNDEFINED   4483195000                       # Cumulative time (in ticks) in various power states (Tick)
system.mem_ctrls.dram.rank0.actEnergy        41790420                       # Energy for activate commands per rank (pJ) (Joule)
system.mem_ctrls.dram.rank0.preEnergy        22181775                       # Energy for precharge commands per rank (pJ) (Joule)
system.mem_ctrls.dram.rank0.readEnergy      244073760                       # Energy for read commands per rank (pJ) (Joule)
system.mem_ctrls.dram.rank0.writeEnergy     135855720                       # Energy for write commands per rank (pJ) (Joule)
system.mem_ctrls.dram.rank0.refreshEnergy 275358720.000000                       # Energy for refresh commands per rank (pJ) (Joule)
system.mem_ctrls.dram.rank0.actBackEnergy   1274021250                       # Energy for active background per rank (pJ) (Joule)
system.mem_ctrls.dram.rank0.preBackEnergy    268861920                       # Energy for precharge background per rank (pJ) (Joule)
system.mem_ctrls.dram.rank0.actPowerDownEnergy            0                       # Energy for active power-down per rank (pJ) (Joule)
system.mem_ctrls.dram.rank0.prePowerDownEnergy            0                       # Energy for precharge power-down per rank (pJ) (Joule)
system.mem_ctrls.dram.rank0.selfRefreshEnergy            0                       # Energy for self refresh per rank (pJ) (Joule)
system.mem_ctrls.dram.rank0.totalEnergy    2262143565                       # Total energy per rank (pJ) (Joule)
system.mem_ctrls.dram.rank0.averagePower   647.615858                       # Core power per rank (mW) (Watt)
system.mem_ctrls.dram.rank0.totalIdleTime            0                       # Total Idle time Per DRAM Rank (Tick)
system.mem_ctrls.dram.rank0.pwrStateTime::IDLE    681248500                       # Time in different power states (Tick)
system.mem_ctrls.dram.rank0.pwrStateTime::REF    116480000                       # Time in different power states (Tick)
system.mem_ctrls.dram.rank0.pwrStateTime::SREF            0                       # Time in different power states (Tick)
system.mem_ctrls.dram.rank0.pwrStateTime::PRE_PDN            0                       # Time in different power states (Tick)
system.mem_ctrls.dram.rank0.pwrStateTime::ACT   2696339000                       # Time in different power states (Tick)
system.mem_ctrls.dram.rank0.pwrStateTime::ACT_PDN            0                       # Time in different power states (Tick)
system.mem_ctrls.dram.rank1.actEnergy        45096240                       # Energy for activate commands per rank (pJ) (Joule)
system.mem_ctrls.dram.rank1.preEnergy        23942655                       # Energy for precharge commands per rank (pJ) (Joule)
system.mem_ctrls.dram.rank1.readEnergy      254869440                       # Energy for read commands per rank (pJ) (Joule)
system.mem_ctrls.dram.rank1.writeEnergy     145591020                       # Energy for write commands per rank (pJ) (Joule)
system.mem_ctrls.dram.rank1.refreshEnergy 275358720.000000                       # Energy for refresh commands per rank (pJ) (Joule)
system.mem_ctrls.dram.rank1.actBackEnergy   1283779080                       # Energy for active background per rank (pJ) (Joule)
system.mem_ctrls.dram.rank1.preBackEnergy    260644800                       # Energy for precharge background per rank (pJ) (Joule)
system.mem_ctrls.dram.rank1.actPowerDownEnergy            0                       # Energy for active power-down per rank (pJ) (Joule)
system.mem_ctrls.dram.rank1.prePowerDownEnergy            0                       # Energy for precharge power-down per rank (pJ) (Joule)
system.mem_ctrls.dram.rank1.selfRefreshEnergy            0                       # Energy for self refresh per rank (pJ) (Joule)
system.mem_ctrls.dram.rank1.totalEnergy    2289281955                       # Total energy per rank (pJ) (Joule)
system.mem_ctrls.dram.rank1.averagePower   655.385150                       # Core power per rank (mW) (Watt)
system.mem_ctrls.dram.rank1.totalIdleTime            0                       # Total Idle time Per DRAM Rank (Tick)
system.mem_ctrls.dram.rank1.pwrStateTime::IDLE    660373500                       # Time in different power states (Tick)
system.mem_ctrls.dram.rank1.pwrStateTime::REF    116480000                       # Time in different power states (Tick)
system.mem_ctrls.dram.rank1.pwrStateTime::SREF            0                       # Time in different power states (Tick)
system.mem_ctrls.dram.rank1.pwrStateTime::PRE_PDN            0                       # Time in different power states (Tick)
system.mem_ctrls.dram.rank1.pwrStateTime::ACT   2717214000                       # Time in different power states (Tick)
system.mem_ctrls.dram.rank1.pwrStateTime::ACT_PDN            0                       # Time in different power states (Tick)
system.mem_ctrls.power_state.pwrStateResidencyTicks::UNDEFINED   4483195000                       # Cumulative time (in ticks) in various power states (Tick)
system.membus.transDist::ReadResp               69840                       # Transaction distribution (Count)
system.membus.transDist::WritebackDirty         53922                       # Transaction distribution (Count)
system.membus.transDist::CleanEvict             15899                       # Transaction distribution (Count)
system.membus.transDist::ReadExReq                 23                       # Transaction distribution (Count)
system.membus.transDist::ReadExResp                23                       # Transaction distribution (Count)
system.membus.transDist::ReadSharedReq          69839                       # Transaction distribution (Count)
system.membus.pktCount_system.l2.mem_side_port::system.mem_ctrls.port       209546                       # Packet count per connected requestor and responder (Count)
system.membus.pktCount::total                  209546                       # Packet count per connected requestor and responder (Count)
system.membus.pktSize_system.l2.mem_side_port::system.mem_ctrls.port      7922240                       # Cumulative packet size per connected requestor and responder (Byte)
system.membus.pktSize::total                  7922240                       # Cumulative packet size per connected requestor and responder (Byte)
system.membus.snoops                                0                       # Total snoops (Count)
system.membus.snoopTraffic                          0                       # Total snoop traffic (Byte)
system.membus.snoopFanout::samples              69862                       # Request fanout histogram (Count)
system.membus.snoopFanout::mean                     0                       # Request fanout histogram (Count)
system.membus.snoopFanout::stdev                    0                       # Request fanout histogram (Count)
system.membus.snoopFanout::underflows               0      0.00%      0.00% # Request fanout histogram (Count)
system.membus.snoopFanout::0                    69862    100.00%    100.00% # Request fanout histogram (Count)
system.membus.snoopFanout::1                        0      0.00%    100.00% # Request fanout histogram (Count)
system.membus.snoopFanout::overflows                0      0.00%    100.00% # Request fanout histogram (Count)
system.membus.snoopFanout::min_value                0                       # Request fanout histogram (Count)
system.membus.snoopFanout::max_value                0                       # Request fanout histogram (Count)
system.membus.snoopFanout::total                69862                       # Request fanout histogram (Count)
system.membus.power_state.pwrStateResidencyTicks::UNDEFINED   4483195000                       # Cumulative time (in ticks) in various power states (Tick)
system.membus.reqLayer0.occupancy           375043500                       # Layer occupancy (ticks) (Tick)
system.membus.reqLayer0.utilization               0.1                       # Layer utilization (Ratio)
system.membus.respLayer1.occupancy          363862000                       # Layer occupancy (ticks) (Tick)
system.membus.respLayer1.utilization              0.1                       # Layer utilization (Ratio)
system.membus.snoop_filter.totRequests         139683                       # Total number of requests made to the snoop filter. (Count)
system.membus.snoop_filter.hitSingleRequests        69821                       # Number of requests hitting in the snoop filter with a single holder of the requested data. (Count)
system.membus.snoop_filter.hitMultiRequests            0                       # Number of requests hitting in the snoop filter with multiple (>1) holders of the requested data. (Count)
system.membus.snoop_filter.totSnoops                0                       # Total number of snoops made to the snoop filter. (Count)
system.membus.snoop_filter.hitSingleSnoops            0                       # Number of snoops hitting in the snoop filter with a single holder of the requested data. (Count)
system.membus.snoop_filter.hitMultiSnoops            0                       # Number of snoops hitting in the snoop filter with multiple (>1) holders of the requested data. (Count)
system.tol2bus.transDist::ReadResp              81459                       # Transaction distribution (Count)
system.tol2bus.transDist::WritebackDirty       109675                       # Transaction distribution (Count)
system.tol2bus.transDist::WritebackClean          231                       # Transaction distribution (Count)
system.tol2bus.transDist::CleanEvict            41675                       # Transaction distribution (Count)
system.tol2bus.transDist::ReadExReq                23                       # Transaction distribution (Count)
system.tol2bus.transDist::ReadExResp               23                       # Transaction distribution (Count)
system.tol2bus.transDist::ReadCleanReq            231                       # Transaction distribution (Count)
system.tol2bus.transDist::ReadSharedReq         81228                       # Transaction distribution (Count)
system.tol2bus.pktCount_system.cpu.icache.mem_side_port::system.l2.cpu_side_port          693                       # Packet count per connected requestor and responder (Count)
system.tol2bus.pktCount_system.cpu.dcache.mem_side_port::system.l2.cpu_side_port       243753                       # Packet count per connected requestor and responder (Count)
system.tol2bus.pktCount::total                 244446                       # Packet count per connected requestor and responder (Count)
system.tol2bus.pktSize_system.cpu.icache.mem_side_port::system.l2.cpu_side_port        29568                       # Cumulative packet size per connected requestor and responder (Byte)
system.tol2bus.pktSize_system.cpu.dcache.mem_side_port::system.l2.cpu_side_port      8768256                       # Cumulative packet size per connected requestor and responder (Byte)
system.tol2bus.pktSize::total                 8797824                       # Cumulative packet size per connected requestor and responder (Byte)
system.tol2bus.snoops                           70099                       # Total snoops (Count)
system.tol2bus.snoopTraffic                   3451008                       # Total snoop traffic (Byte)
system.tol2bus.snoopFanout::samples            151581                       # Request fanout histogram (Count)
system.tol2bus.snoopFanout::mean             0.002131                       # Request fanout histogram (Count)
system.tol2bus.snoopFanout::stdev            0.046112                       # Request fanout histogram (Count)
system.tol2bus.snoopFanout::underflows              0      0.00%      0.00% # Request fanout histogram (Count)
system.tol2bus.snoopFanout::0                  151258     99.79%     99.79% # Request fanout histogram (Count)
system.tol2bus.snoopFanout::1                     323      0.21%    100.00% # Request fanout histogram (Count)
system.tol2bus.snoopFanout::2                       0      0.00%    100.00% # Request fanout histogram (Count)
system.tol2bus.snoopFanout::overflows               0      0.00%    100.00% # Request fanout histogram (Count)
system.tol2bus.snoopFanout::min_value               0                       # Request fanout histogram (Count)
system.tol2bus.snoopFanout::max_value               1                       # Request fanout histogram (Count)
system.tol2bus.snoopFanout::total              151581                       # Request fanout histogram (Count)
system.tol2bus.power_state.pwrStateResidencyTicks::UNDEFINED   4483195000                       # Cumulative time (in ticks) in various power states (Tick)
system.tol2bus.reqLayer0.occupancy          137466000                       # Layer occupancy (ticks) (Tick)
system.tol2bus.reqLayer0.utilization              0.0                       # Layer utilization (Ratio)
system.tol2bus.respLayer0.occupancy            346500                       # Layer occupancy (ticks) (Tick)
system.tol2bus.respLayer0.utilization             0.0                       # Layer utilization (Ratio)
system.tol2bus.respLayer1.occupancy         121876500                       # Layer occupancy (ticks) (Tick)
system.tol2bus.respLayer1.utilization             0.0                       # Layer utilization (Ratio)
system.tol2bus.snoop_filter.totRequests        162964                       # Total number of requests made to the snoop filter. (Count)
system.tol2bus.snoop_filter.hitSingleRequests        81483                       # Number of requests hitting in the snoop filter with a single holder of the requested data. (Count)
system.tol2bus.snoop_filter.hitMultiRequests            0                       # Number of requests hitting in the snoop filter with multiple (>1) holders of the requested data. (Count)
system.tol2bus.snoop_filter.totSnoops             322                       # Total number of snoops made to the snoop filter. (Count)
system.tol2bus.snoop_filter.hitSingleSnoops          322                       # Number of snoops hitting in the snoop filter with a single holder of the requested data. (Count)
system.tol2bus.snoop_filter.hitMultiSnoops            0                       # Number of snoops hitting in the snoop filter with multiple (>1) holders of the requested data. (Count)
system.voltage_domain.voltage                       1                       # Voltage in Volts (Volt)
system.workload.inst.arm                            0                       # number of arm instructions executed (Count)
system.workload.inst.quiesce                        0                       # number of quiesce instructions executed (Count)

---------- End Simulation Statistics   ----------
