
---------- Begin Simulation Statistics ----------
simSeconds                                   0.039556                       # Number of seconds simulated (Second)
simTicks                                  39556242500                       # Number of ticks simulated (Tick)
finalTick                                 40546575500                       # Number of ticks from beginning of simulation (restored from checkpoints and never reset) (Tick)
simFreq                                  1000000000000                       # The number of ticks per simulated second ((Tick/Second))
hostSeconds                                    143.93                       # Real time elapsed on the host (Second)
hostTickRate                                274835025                       # The number of ticks simulated per host second (ticks/s) ((Tick/Second))
hostMemory                                     680120                       # Number of bytes of host memory used (Byte)
simInsts                                     19673423                       # Number of instructions simulated (Count)
simOps                                       23017642                       # Number of ops (including micro ops) simulated (Count)
hostInstRate                                   136690                       # Simulator instruction rate (inst/s) ((Count/Second))
hostOpRate                                     159925                       # Simulator op (including micro ops) rate (op/s) ((Count/Second))
system.clk_domain.clock                          1000                       # Clock period in ticks (Tick)
system.cpu.numCycles                         79112485                       # Number of cpu cycles simulated (Cycle)
system.cpu.numWorkItemsStarted                      0                       # Number of work items this cpu started (Count)
system.cpu.numWorkItemsCompleted                    0                       # Number of work items this cpu completed (Count)
system.cpu.instsAdded                        21137337                       # Number of instructions added to the IQ (excludes non-spec) (Count)
system.cpu.nonSpecInstsAdded                        3                       # Number of non-speculative instructions added to the IQ (Count)
system.cpu.instsIssued                       32123739                       # Number of instructions issued (Count)
system.cpu.squashedInstsIssued                  13153                       # Number of squashed instructions issued (Count)
system.cpu.squashedInstsExamined                46146                       # Number of squashed instructions iterated over during squash; mainly for profiling (Count)
system.cpu.squashedOperandsExamined            127069                       # Number of squashed operands that are examined and possibly removed from graph (Count)
system.cpu.squashedNonSpecRemoved                   2                       # Number of squashed non-spec instructions that were removed (Count)
system.cpu.numIssuedDist::samples            79110708                       # Number of insts issued each cycle (Count)
system.cpu.numIssuedDist::mean               0.406061                       # Number of insts issued each cycle (Count)
system.cpu.numIssuedDist::stdev              1.067997                       # Number of insts issued each cycle (Count)
system.cpu.numIssuedDist::underflows                0      0.00%      0.00% # Number of insts issued each cycle (Count)
system.cpu.numIssuedDist::0                  65468903     82.76%     82.76% # Number of insts issued each cycle (Count)
system.cpu.numIssuedDist::1                   6339591      8.01%     90.77% # Number of insts issued each cycle (Count)
system.cpu.numIssuedDist::2                   1562853      1.98%     92.75% # Number of insts issued each cycle (Count)
system.cpu.numIssuedDist::3                    731049      0.92%     93.67% # Number of insts issued each cycle (Count)
system.cpu.numIssuedDist::4                   4608072      5.82%     99.49% # Number of insts issued each cycle (Count)
system.cpu.numIssuedDist::5                    376884      0.48%     99.97% # Number of insts issued each cycle (Count)
system.cpu.numIssuedDist::6                     18311      0.02%     99.99% # Number of insts issued each cycle (Count)
system.cpu.numIssuedDist::7                      1639      0.00%    100.00% # Number of insts issued each cycle (Count)
system.cpu.numIssuedDist::8                      3406      0.00%    100.00% # Number of insts issued each cycle (Count)
system.cpu.numIssuedDist::overflows                 0      0.00%    100.00% # Number of insts issued each cycle (Count)
system.cpu.numIssuedDist::min_value                 0                       # Number of insts issued each cycle (Count)
system.cpu.numIssuedDist::max_value                 8                       # Number of insts issued each cycle (Count)
system.cpu.numIssuedDist::total              79110708                       # Number of insts issued each cycle (Count)
system.cpu.statFuBusy::No_OpClass                   0      0.00%      0.00% # attempts to use FU when none available (Count)
system.cpu.statFuBusy::IntAlu                      94      0.01%      0.01% # attempts to use FU when none available (Count)
system.cpu.statFuBusy::IntMult                      0      0.00%      0.01% # attempts to use FU when none available (Count)
system.cpu.statFuBusy::IntDiv                       0      0.00%      0.01% # attempts to use FU when none available (Count)
system.cpu.statFuBusy::FloatAdd                     0      0.00%      0.01% # attempts to use FU when none available (Count)
system.cpu.statFuBusy::FloatCmp                     0      0.00%      0.01% # attempts to use FU when none available (Count)
system.cpu.statFuBusy::FloatCvt                     0      0.00%      0.01% # attempts to use FU when none available (Count)
system.cpu.statFuBusy::FloatMult                    0      0.00%      0.01% # attempts to use FU when none available (Count)
system.cpu.statFuBusy::FloatMultAcc                 0      0.00%      0.01% # attempts to use FU when none available (Count)
system.cpu.statFuBusy::FloatDiv                     0      0.00%      0.01% # attempts to use FU when none available (Count)
system.cpu.statFuBusy::FloatMisc                    0      0.00%      0.01% # attempts to use FU when none available (Count)
system.cpu.statFuBusy::FloatSqrt                    0      0.00%      0.01% # attempts to use FU when none available (Count)
system.cpu.statFuBusy::SimdAdd                      0      0.00%      0.01% # attempts to use FU when none available (Count)
system.cpu.statFuBusy::SimdAddAcc                   0      0.00%      0.01% # attempts to use FU when none available (Count)
system.cpu.statFuBusy::SimdAlu                    350      0.02%      0.03% # attempts to use FU when none available (Count)
system.cpu.statFuBusy::SimdCmp                      0      0.00%      0.03% # attempts to use FU when none available (Count)
system.cpu.statFuBusy::SimdCvt                      0      0.00%      0.03% # attempts to use FU when none available (Count)
system.cpu.statFuBusy::SimdMisc                     0      0.00%      0.03% # attempts to use FU when none available (Count)
system.cpu.statFuBusy::SimdMult                     0      0.00%      0.03% # attempts to use FU when none available (Count)
system.cpu.statFuBusy::SimdMultAcc                  0      0.00%      0.03% # attempts to use FU when none available (Count)
system.cpu.statFuBusy::SimdShift                    0      0.00%      0.03% # attempts to use FU when none available (Count)
system.cpu.statFuBusy::SimdShiftAcc                 0      0.00%      0.03% # attempts to use FU when none available (Count)
system.cpu.statFuBusy::SimdDiv                      0      0.00%      0.03% # attempts to use FU when none available (Count)
system.cpu.statFuBusy::SimdSqrt                     0      0.00%      0.03% # attempts to use FU when none available (Count)
system.cpu.statFuBusy::SimdFloatAdd                 0      0.00%      0.03% # attempts to use FU when none available (Count)
system.cpu.statFuBusy::SimdFloatAlu                 0      0.00%      0.03% # attempts to use FU when none available (Count)
system.cpu.statFuBusy::SimdFloatCmp                 0      0.00%      0.03% # attempts to use FU when none available (Count)
system.cpu.statFuBusy::SimdFloatCvt                 0      0.00%      0.03% # attempts to use FU when none available (Count)
system.cpu.statFuBusy::SimdFloatDiv                 0      0.00%      0.03% # attempts to use FU when none available (Count)
system.cpu.statFuBusy::SimdFloatMisc                0      0.00%      0.03% # attempts to use FU when none available (Count)
system.cpu.statFuBusy::SimdFloatMult                0      0.00%      0.03% # attempts to use FU when none available (Count)
system.cpu.statFuBusy::SimdFloatMultAcc             0      0.00%      0.03% # attempts to use FU when none available (Count)
system.cpu.statFuBusy::SimdFloatSqrt                0      0.00%      0.03% # attempts to use FU when none available (Count)
system.cpu.statFuBusy::SimdReduceAdd                0      0.00%      0.03% # attempts to use FU when none available (Count)
system.cpu.statFuBusy::SimdReduceAlu                0      0.00%      0.03% # attempts to use FU when none available (Count)
system.cpu.statFuBusy::SimdReduceCmp                0      0.00%      0.03% # attempts to use FU when none available (Count)
system.cpu.statFuBusy::SimdFloatReduceAdd            0      0.00%      0.03% # attempts to use FU when none available (Count)
system.cpu.statFuBusy::SimdFloatReduceCmp            0      0.00%      0.03% # attempts to use FU when none available (Count)
system.cpu.statFuBusy::SimdAes                      0      0.00%      0.03% # attempts to use FU when none available (Count)
system.cpu.statFuBusy::SimdAesMix                   0      0.00%      0.03% # attempts to use FU when none available (Count)
system.cpu.statFuBusy::SimdSha1Hash                 0      0.00%      0.03% # attempts to use FU when none available (Count)
system.cpu.statFuBusy::SimdSha1Hash2                0      0.00%      0.03% # attempts to use FU when none available (Count)
system.cpu.statFuBusy::SimdSha256Hash               0      0.00%      0.03% # attempts to use FU when none available (Count)
system.cpu.statFuBusy::SimdSha256Hash2              0      0.00%      0.03% # attempts to use FU when none available (Count)
system.cpu.statFuBusy::SimdShaSigma2                0      0.00%      0.03% # attempts to use FU when none available (Count)
system.cpu.statFuBusy::SimdShaSigma3                0      0.00%      0.03% # attempts to use FU when none available (Count)
system.cpu.statFuBusy::SimdPredAlu                  0      0.00%      0.03% # attempts to use FU when none available (Count)
system.cpu.statFuBusy::MemRead                1642223     99.97%    100.00% # attempts to use FU when none available (Count)
system.cpu.statFuBusy::MemWrite                    12      0.00%    100.00% # attempts to use FU when none available (Count)
system.cpu.statFuBusy::FloatMemRead                 0      0.00%    100.00% # attempts to use FU when none available (Count)
system.cpu.statFuBusy::FloatMemWrite                0      0.00%    100.00% # attempts to use FU when none available (Count)
system.cpu.statFuBusy::IprAccess                    0      0.00%    100.00% # attempts to use FU when none available (Count)
system.cpu.statFuBusy::InstPrefetch                 0      0.00%    100.00% # attempts to use FU when none available (Count)
system.cpu.statIssuedInstType_0::No_OpClass      1230034      3.83%      3.83% # Number of instructions issued per FU type, per thread (Count)
system.cpu.statIssuedInstType_0::IntAlu       6337034     19.73%     23.56% # Number of instructions issued per FU type, per thread (Count)
system.cpu.statIssuedInstType_0::IntMult           28      0.00%     23.56% # Number of instructions issued per FU type, per thread (Count)
system.cpu.statIssuedInstType_0::IntDiv             0      0.00%     23.56% # Number of instructions issued per FU type, per thread (Count)
system.cpu.statIssuedInstType_0::FloatAdd            0      0.00%     23.56% # Number of instructions issued per FU type, per thread (Count)
system.cpu.statIssuedInstType_0::FloatCmp            0      0.00%     23.56% # Number of instructions issued per FU type, per thread (Count)
system.cpu.statIssuedInstType_0::FloatCvt            0      0.00%     23.56% # Number of instructions issued per FU type, per thread (Count)
system.cpu.statIssuedInstType_0::FloatMult            0      0.00%     23.56% # Number of instructions issued per FU type, per thread (Count)
system.cpu.statIssuedInstType_0::FloatMultAcc            0      0.00%     23.56% # Number of instructions issued per FU type, per thread (Count)
system.cpu.statIssuedInstType_0::FloatDiv            0      0.00%     23.56% # Number of instructions issued per FU type, per thread (Count)
system.cpu.statIssuedInstType_0::FloatMisc            0      0.00%     23.56% # Number of instructions issued per FU type, per thread (Count)
system.cpu.statIssuedInstType_0::FloatSqrt            0      0.00%     23.56% # Number of instructions issued per FU type, per thread (Count)
system.cpu.statIssuedInstType_0::SimdAdd      2459252      7.66%     31.21% # Number of instructions issued per FU type, per thread (Count)
system.cpu.statIssuedInstType_0::SimdAddAcc            0      0.00%     31.21% # Number of instructions issued per FU type, per thread (Count)
system.cpu.statIssuedInstType_0::SimdAlu      4919328     15.31%     46.53% # Number of instructions issued per FU type, per thread (Count)
system.cpu.statIssuedInstType_0::SimdCmp            0      0.00%     46.53% # Number of instructions issued per FU type, per thread (Count)
system.cpu.statIssuedInstType_0::SimdCvt            0      0.00%     46.53% # Number of instructions issued per FU type, per thread (Count)
system.cpu.statIssuedInstType_0::SimdMisc      2459253      7.66%     54.18% # Number of instructions issued per FU type, per thread (Count)
system.cpu.statIssuedInstType_0::SimdMult            0      0.00%     54.18% # Number of instructions issued per FU type, per thread (Count)
system.cpu.statIssuedInstType_0::SimdMultAcc            0      0.00%     54.18% # Number of instructions issued per FU type, per thread (Count)
system.cpu.statIssuedInstType_0::SimdShift            0      0.00%     54.18% # Number of instructions issued per FU type, per thread (Count)
system.cpu.statIssuedInstType_0::SimdShiftAcc            0      0.00%     54.18% # Number of instructions issued per FU type, per thread (Count)
system.cpu.statIssuedInstType_0::SimdDiv            0      0.00%     54.18% # Number of instructions issued per FU type, per thread (Count)
system.cpu.statIssuedInstType_0::SimdSqrt            0      0.00%     54.18% # Number of instructions issued per FU type, per thread (Count)
system.cpu.statIssuedInstType_0::SimdFloatAdd            0      0.00%     54.18% # Number of instructions issued per FU type, per thread (Count)
system.cpu.statIssuedInstType_0::SimdFloatAlu            0      0.00%     54.18% # Number of instructions issued per FU type, per thread (Count)
system.cpu.statIssuedInstType_0::SimdFloatCmp            0      0.00%     54.18% # Number of instructions issued per FU type, per thread (Count)
system.cpu.statIssuedInstType_0::SimdFloatCvt            0      0.00%     54.18% # Number of instructions issued per FU type, per thread (Count)
system.cpu.statIssuedInstType_0::SimdFloatDiv            0      0.00%     54.18% # Number of instructions issued per FU type, per thread (Count)
system.cpu.statIssuedInstType_0::SimdFloatMisc            0      0.00%     54.18% # Number of instructions issued per FU type, per thread (Count)
system.cpu.statIssuedInstType_0::SimdFloatMult            0      0.00%     54.18% # Number of instructions issued per FU type, per thread (Count)
system.cpu.statIssuedInstType_0::SimdFloatMultAcc            0      0.00%     54.18% # Number of instructions issued per FU type, per thread (Count)
system.cpu.statIssuedInstType_0::SimdFloatSqrt            0      0.00%     54.18% # Number of instructions issued per FU type, per thread (Count)
system.cpu.statIssuedInstType_0::SimdReduceAdd            0      0.00%     54.18% # Number of instructions issued per FU type, per thread (Count)
system.cpu.statIssuedInstType_0::SimdReduceAlu            0      0.00%     54.18% # Number of instructions issued per FU type, per thread (Count)
system.cpu.statIssuedInstType_0::SimdReduceCmp            0      0.00%     54.18% # Number of instructions issued per FU type, per thread (Count)
system.cpu.statIssuedInstType_0::SimdFloatReduceAdd            0      0.00%     54.18% # Number of instructions issued per FU type, per thread (Count)
system.cpu.statIssuedInstType_0::SimdFloatReduceCmp            0      0.00%     54.18% # Number of instructions issued per FU type, per thread (Count)
system.cpu.statIssuedInstType_0::SimdAes            0      0.00%     54.18% # Number of instructions issued per FU type, per thread (Count)
system.cpu.statIssuedInstType_0::SimdAesMix            0      0.00%     54.18% # Number of instructions issued per FU type, per thread (Count)
system.cpu.statIssuedInstType_0::SimdSha1Hash            0      0.00%     54.18% # Number of instructions issued per FU type, per thread (Count)
system.cpu.statIssuedInstType_0::SimdSha1Hash2            0      0.00%     54.18% # Number of instructions issued per FU type, per thread (Count)
system.cpu.statIssuedInstType_0::SimdSha256Hash            0      0.00%     54.18% # Number of instructions issued per FU type, per thread (Count)
system.cpu.statIssuedInstType_0::SimdSha256Hash2            0      0.00%     54.18% # Number of instructions issued per FU type, per thread (Count)
system.cpu.statIssuedInstType_0::SimdShaSigma2            0      0.00%     54.18% # Number of instructions issued per FU type, per thread (Count)
system.cpu.statIssuedInstType_0::SimdShaSigma3            0      0.00%     54.18% # Number of instructions issued per FU type, per thread (Count)
system.cpu.statIssuedInstType_0::SimdPredAlu            0      0.00%     54.18% # Number of instructions issued per FU type, per thread (Count)
system.cpu.statIssuedInstType_0::MemRead     14103800     43.90%     98.09% # Number of instructions issued per FU type, per thread (Count)
system.cpu.statIssuedInstType_0::MemWrite       615010      1.91%    100.00% # Number of instructions issued per FU type, per thread (Count)
system.cpu.statIssuedInstType_0::FloatMemRead            0      0.00%    100.00% # Number of instructions issued per FU type, per thread (Count)
system.cpu.statIssuedInstType_0::FloatMemWrite            0      0.00%    100.00% # Number of instructions issued per FU type, per thread (Count)
system.cpu.statIssuedInstType_0::IprAccess            0      0.00%    100.00% # Number of instructions issued per FU type, per thread (Count)
system.cpu.statIssuedInstType_0::InstPrefetch            0      0.00%    100.00% # Number of instructions issued per FU type, per thread (Count)
system.cpu.statIssuedInstType_0::total       32123739                       # Number of instructions issued per FU type, per thread (Count)
system.cpu.issueRate                         0.406051                       # Inst issue rate ((Count/Cycle))
system.cpu.fuBusy                             1642679                       # FU busy when requested (Count)
system.cpu.fuBusyRate                        0.051136                       # FU busy rate (busy events/executed inst) ((Count/Count))
system.cpu.intInstQueueReads                 97805539                       # Number of integer instruction queue reads (Count)
system.cpu.intInstQueueWrites                 7580546                       # Number of integer instruction queue writes (Count)
system.cpu.intInstQueueWakeupAccesses         7566995                       # Number of integer instruction queue wakeup accesses (Count)
system.cpu.fpInstQueueReads                         0                       # Number of floating instruction queue reads (Count)
system.cpu.fpInstQueueWrites                        0                       # Number of floating instruction queue writes (Count)
system.cpu.fpInstQueueWakeupAccesses                0                       # Number of floating instruction queue wakeup accesses (Count)
system.cpu.vecInstQueueReads                 47208471                       # Number of vector instruction queue reads (Count)
system.cpu.vecInstQueueWrites                13602957                       # Number of vector instruction queue writes (Count)
system.cpu.vecInstQueueWakeupAccesses        13527981                       # Number of vector instruction queue wakeup accesses (Count)
system.cpu.intAluAccesses                     9582704                       # Number of integer alu accesses (Count)
system.cpu.fpAluAccesses                            0                       # Number of floating point alu accesses (Count)
system.cpu.vecAluAccesses                    22953680                       # Number of vector alu accesses (Count)
system.cpu.numInsts                          32113280                       # Number of executed instructions (Count)
system.cpu.numLoadInsts                      14093725                       # Number of load instructions executed (Count)
system.cpu.numSquashedInsts                     10451                       # Number of squashed instructions skipped in execute (Count)
system.cpu.numSwp                                   0                       # Number of swp insts executed (Count)
system.cpu.numNop                                  35                       # Number of nop insts executed (Count)
system.cpu.numRefs                           14708733                       # Number of memory reference insts executed (Count)
system.cpu.numBranches                         650154                       # Number of branches executed (Count)
system.cpu.numStoreInsts                       615008                       # Number of stores executed (Count)
system.cpu.numRate                           0.405919                       # Inst execution rate ((Count/Cycle))
system.cpu.timesIdled                              29                       # Number of times that the entire CPU went into an idle state and unscheduled itself (Count)
system.cpu.idleCycles                            1777                       # Total number of cycles that the CPU has spent unscheduled due to idling (Cycle)
system.cpu.committedInsts                    18016044                       # Number of Instructions Simulated (Count)
system.cpu.committedOps                      21091164                       # Number of Ops (including micro ops) Simulated (Count)
system.cpu.cpi                               4.391224                       # CPI: Cycles Per Instruction ((Cycle/Count))
system.cpu.totalCpi                          4.391224                       # CPI: Total CPI of All Threads ((Cycle/Count))
system.cpu.ipc                               0.227727                       # IPC: Instructions Per Cycle ((Count/Cycle))
system.cpu.totalIpc                          0.227727                       # IPC: Total IPC of All Threads ((Count/Cycle))
system.cpu.intRegfileReads                   25428304                       # Number of integer regfile reads (Count)
system.cpu.intRegfileWrites                   8122563                       # Number of integer regfile writes (Count)
system.cpu.vecRegfileReads                   30746829                       # number of vector regfile reads (Count)
system.cpu.ccRegfileReads                     1915830                       # number of cc regfile reads (Count)
system.cpu.ccRegfileWrites                    1915845                       # number of cc regfile writes (Count)
system.cpu.miscRegfileReads                  44158758                       # number of misc regfile reads (Count)
system.cpu.MemDepUnit__0.insertedLoads        3102235                       # Number of loads inserted to the mem dependence unit. (Count)
system.cpu.MemDepUnit__0.insertedStores        615599                       # Number of stores inserted to the mem dependence unit. (Count)
system.cpu.MemDepUnit__0.conflictingLoads           33                       # Number of conflicting loads. (Count)
system.cpu.MemDepUnit__0.conflictingStores            3                       # Number of conflicting stores. (Count)
system.cpu.MemDepUnit__1.insertedLoads              0                       # Number of loads inserted to the mem dependence unit. (Count)
system.cpu.MemDepUnit__1.insertedStores             0                       # Number of stores inserted to the mem dependence unit. (Count)
system.cpu.MemDepUnit__1.conflictingLoads            0                       # Number of conflicting loads. (Count)
system.cpu.MemDepUnit__1.conflictingStores            0                       # Number of conflicting stores. (Count)
system.cpu.MemDepUnit__2.insertedLoads              0                       # Number of loads inserted to the mem dependence unit. (Count)
system.cpu.MemDepUnit__2.insertedStores             0                       # Number of stores inserted to the mem dependence unit. (Count)
system.cpu.MemDepUnit__2.conflictingLoads            0                       # Number of conflicting loads. (Count)
system.cpu.MemDepUnit__2.conflictingStores            0                       # Number of conflicting stores. (Count)
system.cpu.MemDepUnit__3.insertedLoads              0                       # Number of loads inserted to the mem dependence unit. (Count)
system.cpu.MemDepUnit__3.insertedStores             0                       # Number of stores inserted to the mem dependence unit. (Count)
system.cpu.MemDepUnit__3.conflictingLoads            0                       # Number of conflicting loads. (Count)
system.cpu.MemDepUnit__3.conflictingStores            0                       # Number of conflicting stores. (Count)
system.cpu.branchPred.lookups                  662632                       # Number of BP lookups (Count)
system.cpu.branchPred.condPredicted            650915                       # Number of conditional branches predicted (Count)
system.cpu.branchPred.condIncorrect             11841                       # Number of conditional branches incorrect (Count)
system.cpu.branchPred.BTBLookups               639265                       # Number of BTB lookups (Count)
system.cpu.branchPred.BTBUpdates                  224                       # Number of BTB updates (Count)
system.cpu.branchPred.BTBHits                  639248                       # Number of BTB hits (Count)
system.cpu.branchPred.BTBHitRatio            0.999973                       # BTB Hit Ratio (Ratio)
system.cpu.branchPred.RASUsed                       3                       # Number of times the RAS was used to get a target. (Count)
system.cpu.branchPred.RASIncorrect                  0                       # Number of incorrect RAS predictions. (Count)
system.cpu.branchPred.indirectLookups              87                       # Number of indirect predictor lookups. (Count)
system.cpu.branchPred.indirectHits                  0                       # Number of indirect target hits. (Count)
system.cpu.branchPred.indirectMisses               87                       # Number of indirect misses. (Count)
system.cpu.branchPred.indirectMispredicted            1                       # Number of mispredicted indirect branches. (Count)
system.cpu.commit.commitSquashedInsts           46301                       # The number of squashed insts skipped by commit (Count)
system.cpu.commit.commitNonSpecStalls               1                       # The number of times commit has been forced to stall to communicate backwards (Count)
system.cpu.commit.branchMispredicts             11836                       # The number of times a branch was mispredicted (Count)
system.cpu.commit.numCommittedDist::samples     79096171                       # Number of insts commited each cycle (Count)
system.cpu.commit.numCommittedDist::mean     0.266653                       # Number of insts commited each cycle (Count)
system.cpu.commit.numCommittedDist::stdev     0.959117                       # Number of insts commited each cycle (Count)
system.cpu.commit.numCommittedDist::underflows            0      0.00%      0.00% # Number of insts commited each cycle (Count)
system.cpu.commit.numCommittedDist::0        70175290     88.72%     88.72% # Number of insts commited each cycle (Count)
system.cpu.commit.numCommittedDist::1         4830614      6.11%     94.83% # Number of insts commited each cycle (Count)
system.cpu.commit.numCommittedDist::2          499999      0.63%     95.46% # Number of insts commited each cycle (Count)
system.cpu.commit.numCommittedDist::3          703822      0.89%     96.35% # Number of insts commited each cycle (Count)
system.cpu.commit.numCommittedDist::4         2457674      3.11%     99.46% # Number of insts commited each cycle (Count)
system.cpu.commit.numCommittedDist::5           10701      0.01%     99.47% # Number of insts commited each cycle (Count)
system.cpu.commit.numCommittedDist::6           33940      0.04%     99.51% # Number of insts commited each cycle (Count)
system.cpu.commit.numCommittedDist::7           11771      0.01%     99.53% # Number of insts commited each cycle (Count)
system.cpu.commit.numCommittedDist::8          372360      0.47%    100.00% # Number of insts commited each cycle (Count)
system.cpu.commit.numCommittedDist::overflows            0      0.00%    100.00% # Number of insts commited each cycle (Count)
system.cpu.commit.numCommittedDist::min_value            0                       # Number of insts commited each cycle (Count)
system.cpu.commit.numCommittedDist::max_value            8                       # Number of insts commited each cycle (Count)
system.cpu.commit.numCommittedDist::total     79096171                       # Number of insts commited each cycle (Count)
system.cpu.commit.instsCommitted             18016076                       # Number of instructions committed (Count)
system.cpu.commit.opsCommitted               21091196                       # Number of ops (including micro ops) committed (Count)
system.cpu.commit.memRefs                     3690081                       # Number of memory references committed (Count)
system.cpu.commit.loads                       3075145                       # Number of loads committed (Count)
system.cpu.commit.amos                              0                       # Number of atomic instructions committed (Count)
system.cpu.commit.membars                           0                       # Number of memory barriers committed (Count)
system.cpu.commit.branches                     649379                       # Number of branches committed (Count)
system.cpu.commit.vectorInstructions         13527603                       # Number of committed Vector instructions. (Count)
system.cpu.commit.floating                          0                       # Number of committed floating point instructions. (Count)
system.cpu.commit.integer                    11833385                       # Number of committed integer instructions. (Count)
system.cpu.commit.functionCalls                     1                       # Number of function calls committed. (Count)
system.cpu.commit.committedInstType_0::No_OpClass      1230000      5.83%      5.83% # Class of committed instruction (Count)
system.cpu.commit.committedInstType_0::IntAlu      6333487     30.03%     35.86% # Class of committed instruction (Count)
system.cpu.commit.committedInstType_0::IntMult           25      0.00%     35.86% # Class of committed instruction (Count)
system.cpu.commit.committedInstType_0::IntDiv            0      0.00%     35.86% # Class of committed instruction (Count)
system.cpu.commit.committedInstType_0::FloatAdd            0      0.00%     35.86% # Class of committed instruction (Count)
system.cpu.commit.committedInstType_0::FloatCmp            0      0.00%     35.86% # Class of committed instruction (Count)
system.cpu.commit.committedInstType_0::FloatCvt            0      0.00%     35.86% # Class of committed instruction (Count)
system.cpu.commit.committedInstType_0::FloatMult            0      0.00%     35.86% # Class of committed instruction (Count)
system.cpu.commit.committedInstType_0::FloatMultAcc            0      0.00%     35.86% # Class of committed instruction (Count)
system.cpu.commit.committedInstType_0::FloatDiv            0      0.00%     35.86% # Class of committed instruction (Count)
system.cpu.commit.committedInstType_0::FloatMisc            0      0.00%     35.86% # Class of committed instruction (Count)
system.cpu.commit.committedInstType_0::FloatSqrt            0      0.00%     35.86% # Class of committed instruction (Count)
system.cpu.commit.committedInstType_0::SimdAdd      2459201     11.66%     47.52% # Class of committed instruction (Count)
system.cpu.commit.committedInstType_0::SimdAddAcc            0      0.00%     47.52% # Class of committed instruction (Count)
system.cpu.commit.committedInstType_0::SimdAlu      4919200     23.32%     70.84% # Class of committed instruction (Count)
system.cpu.commit.committedInstType_0::SimdCmp            0      0.00%     70.84% # Class of committed instruction (Count)
system.cpu.commit.committedInstType_0::SimdCvt            0      0.00%     70.84% # Class of committed instruction (Count)
system.cpu.commit.committedInstType_0::SimdMisc      2459202     11.66%     82.50% # Class of committed instruction (Count)
system.cpu.commit.committedInstType_0::SimdMult            0      0.00%     82.50% # Class of committed instruction (Count)
system.cpu.commit.committedInstType_0::SimdMultAcc            0      0.00%     82.50% # Class of committed instruction (Count)
system.cpu.commit.committedInstType_0::SimdShift            0      0.00%     82.50% # Class of committed instruction (Count)
system.cpu.commit.committedInstType_0::SimdShiftAcc            0      0.00%     82.50% # Class of committed instruction (Count)
system.cpu.commit.committedInstType_0::SimdDiv            0      0.00%     82.50% # Class of committed instruction (Count)
system.cpu.commit.committedInstType_0::SimdSqrt            0      0.00%     82.50% # Class of committed instruction (Count)
system.cpu.commit.committedInstType_0::SimdFloatAdd            0      0.00%     82.50% # Class of committed instruction (Count)
system.cpu.commit.committedInstType_0::SimdFloatAlu            0      0.00%     82.50% # Class of committed instruction (Count)
system.cpu.commit.committedInstType_0::SimdFloatCmp            0      0.00%     82.50% # Class of committed instruction (Count)
system.cpu.commit.committedInstType_0::SimdFloatCvt            0      0.00%     82.50% # Class of committed instruction (Count)
system.cpu.commit.committedInstType_0::SimdFloatDiv            0      0.00%     82.50% # Class of committed instruction (Count)
system.cpu.commit.committedInstType_0::SimdFloatMisc            0      0.00%     82.50% # Class of committed instruction (Count)
system.cpu.commit.committedInstType_0::SimdFloatMult            0      0.00%     82.50% # Class of committed instruction (Count)
system.cpu.commit.committedInstType_0::SimdFloatMultAcc            0      0.00%     82.50% # Class of committed instruction (Count)
system.cpu.commit.committedInstType_0::SimdFloatSqrt            0      0.00%     82.50% # Class of committed instruction (Count)
system.cpu.commit.committedInstType_0::SimdReduceAdd            0      0.00%     82.50% # Class of committed instruction (Count)
system.cpu.commit.committedInstType_0::SimdReduceAlu            0      0.00%     82.50% # Class of committed instruction (Count)
system.cpu.commit.committedInstType_0::SimdReduceCmp            0      0.00%     82.50% # Class of committed instruction (Count)
system.cpu.commit.committedInstType_0::SimdFloatReduceAdd            0      0.00%     82.50% # Class of committed instruction (Count)
system.cpu.commit.committedInstType_0::SimdFloatReduceCmp            0      0.00%     82.50% # Class of committed instruction (Count)
system.cpu.commit.committedInstType_0::SimdAes            0      0.00%     82.50% # Class of committed instruction (Count)
system.cpu.commit.committedInstType_0::SimdAesMix            0      0.00%     82.50% # Class of committed instruction (Count)
system.cpu.commit.committedInstType_0::SimdSha1Hash            0      0.00%     82.50% # Class of committed instruction (Count)
system.cpu.commit.committedInstType_0::SimdSha1Hash2            0      0.00%     82.50% # Class of committed instruction (Count)
system.cpu.commit.committedInstType_0::SimdSha256Hash            0      0.00%     82.50% # Class of committed instruction (Count)
system.cpu.commit.committedInstType_0::SimdSha256Hash2            0      0.00%     82.50% # Class of committed instruction (Count)
system.cpu.commit.committedInstType_0::SimdShaSigma2            0      0.00%     82.50% # Class of committed instruction (Count)
system.cpu.commit.committedInstType_0::SimdShaSigma3            0      0.00%     82.50% # Class of committed instruction (Count)
system.cpu.commit.committedInstType_0::SimdPredAlu            0      0.00%     82.50% # Class of committed instruction (Count)
system.cpu.commit.committedInstType_0::MemRead      3075145     14.58%     97.08% # Class of committed instruction (Count)
system.cpu.commit.committedInstType_0::MemWrite       614936      2.92%    100.00% # Class of committed instruction (Count)
system.cpu.commit.committedInstType_0::FloatMemRead            0      0.00%    100.00% # Class of committed instruction (Count)
system.cpu.commit.committedInstType_0::FloatMemWrite            0      0.00%    100.00% # Class of committed instruction (Count)
system.cpu.commit.committedInstType_0::IprAccess            0      0.00%    100.00% # Class of committed instruction (Count)
system.cpu.commit.committedInstType_0::InstPrefetch            0      0.00%    100.00% # Class of committed instruction (Count)
system.cpu.commit.committedInstType_0::total     21091196                       # Class of committed instruction (Count)
system.cpu.commit.commitEligibleSamples        372360                       # number cycles where commit BW limit reached (Cycle)
system.cpu.dcache.demandHits::cpu.data         618628                       # number of demand (read+write) hits (Count)
system.cpu.dcache.demandHits::total            618628                       # number of demand (read+write) hits (Count)
system.cpu.dcache.overallHits::cpu.data        618628                       # number of overall hits (Count)
system.cpu.dcache.overallHits::total           618628                       # number of overall hits (Count)
system.cpu.dcache.demandMisses::cpu.data      3072517                       # number of demand (read+write) misses (Count)
system.cpu.dcache.demandMisses::total         3072517                       # number of demand (read+write) misses (Count)
system.cpu.dcache.overallMisses::cpu.data      3072517                       # number of overall misses (Count)
system.cpu.dcache.overallMisses::total        3072517                       # number of overall misses (Count)
system.cpu.dcache.demandMissLatency::cpu.data 236949778000                       # number of demand (read+write) miss ticks (Tick)
system.cpu.dcache.demandMissLatency::total 236949778000                       # number of demand (read+write) miss ticks (Tick)
system.cpu.dcache.overallMissLatency::cpu.data 236949778000                       # number of overall miss ticks (Tick)
system.cpu.dcache.overallMissLatency::total 236949778000                       # number of overall miss ticks (Tick)
system.cpu.dcache.demandAccesses::cpu.data      3691145                       # number of demand (read+write) accesses (Count)
system.cpu.dcache.demandAccesses::total       3691145                       # number of demand (read+write) accesses (Count)
system.cpu.dcache.overallAccesses::cpu.data      3691145                       # number of overall (read+write) accesses (Count)
system.cpu.dcache.overallAccesses::total      3691145                       # number of overall (read+write) accesses (Count)
system.cpu.dcache.demandMissRate::cpu.data     0.832402                       # miss rate for demand accesses (Ratio)
system.cpu.dcache.demandMissRate::total      0.832402                       # miss rate for demand accesses (Ratio)
system.cpu.dcache.overallMissRate::cpu.data     0.832402                       # miss rate for overall accesses (Ratio)
system.cpu.dcache.overallMissRate::total     0.832402                       # miss rate for overall accesses (Ratio)
system.cpu.dcache.demandAvgMissLatency::cpu.data 77119.110488                       # average overall miss latency in ticks ((Tick/Count))
system.cpu.dcache.demandAvgMissLatency::total 77119.110488                       # average overall miss latency in ticks ((Tick/Count))
system.cpu.dcache.overallAvgMissLatency::cpu.data 77119.110488                       # average overall miss latency ((Tick/Count))
system.cpu.dcache.overallAvgMissLatency::total 77119.110488                       # average overall miss latency ((Tick/Count))
system.cpu.dcache.blockedCycles::no_mshrs     75486902                       # number of cycles access was blocked (Cycle)
system.cpu.dcache.blockedCycles::no_targets           77                       # number of cycles access was blocked (Cycle)
system.cpu.dcache.blockedCauses::no_mshrs      1844258                       # number of times access was blocked (Count)
system.cpu.dcache.blockedCauses::no_targets            1                       # number of times access was blocked (Count)
system.cpu.dcache.avgBlocked::no_mshrs      40.930771                       # average number of cycles each access was blocked ((Cycle/Count))
system.cpu.dcache.avgBlocked::no_targets           77                       # average number of cycles each access was blocked ((Cycle/Count))
system.cpu.dcache.writebacks::writebacks       614959                       # number of writebacks (Count)
system.cpu.dcache.writebacks::total            614959                       # number of writebacks (Count)
system.cpu.dcache.demandMshrHits::cpu.data      1227490                       # number of demand (read+write) MSHR hits (Count)
system.cpu.dcache.demandMshrHits::total       1227490                       # number of demand (read+write) MSHR hits (Count)
system.cpu.dcache.overallMshrHits::cpu.data      1227490                       # number of overall MSHR hits (Count)
system.cpu.dcache.overallMshrHits::total      1227490                       # number of overall MSHR hits (Count)
system.cpu.dcache.demandMshrMisses::cpu.data      1845027                       # number of demand (read+write) MSHR misses (Count)
system.cpu.dcache.demandMshrMisses::total      1845027                       # number of demand (read+write) MSHR misses (Count)
system.cpu.dcache.overallMshrMisses::cpu.data      1845027                       # number of overall MSHR misses (Count)
system.cpu.dcache.overallMshrMisses::total      1845027                       # number of overall MSHR misses (Count)
system.cpu.dcache.demandMshrMissLatency::cpu.data 156400723000                       # number of demand (read+write) MSHR miss ticks (Tick)
system.cpu.dcache.demandMshrMissLatency::total 156400723000                       # number of demand (read+write) MSHR miss ticks (Tick)
system.cpu.dcache.overallMshrMissLatency::cpu.data 156400723000                       # number of overall MSHR miss ticks (Tick)
system.cpu.dcache.overallMshrMissLatency::total 156400723000                       # number of overall MSHR miss ticks (Tick)
system.cpu.dcache.demandMshrMissRate::cpu.data     0.499852                       # mshr miss ratio for demand accesses (Ratio)
system.cpu.dcache.demandMshrMissRate::total     0.499852                       # mshr miss ratio for demand accesses (Ratio)
system.cpu.dcache.overallMshrMissRate::cpu.data     0.499852                       # mshr miss ratio for overall accesses (Ratio)
system.cpu.dcache.overallMshrMissRate::total     0.499852                       # mshr miss ratio for overall accesses (Ratio)
system.cpu.dcache.demandAvgMshrMissLatency::cpu.data 84768.799047                       # average overall mshr miss latency ((Tick/Count))
system.cpu.dcache.demandAvgMshrMissLatency::total 84768.799047                       # average overall mshr miss latency ((Tick/Count))
system.cpu.dcache.overallAvgMshrMissLatency::cpu.data 84768.799047                       # average overall mshr miss latency ((Tick/Count))
system.cpu.dcache.overallAvgMshrMissLatency::total 84768.799047                       # average overall mshr miss latency ((Tick/Count))
system.cpu.dcache.replacements                1845023                       # number of replacements (Count)
system.cpu.dcache.ReadReq.hits::cpu.data         3692                       # number of ReadReq hits (Count)
system.cpu.dcache.ReadReq.hits::total            3692                       # number of ReadReq hits (Count)
system.cpu.dcache.ReadReq.misses::cpu.data      3072517                       # number of ReadReq misses (Count)
system.cpu.dcache.ReadReq.misses::total       3072517                       # number of ReadReq misses (Count)
system.cpu.dcache.ReadReq.missLatency::cpu.data 236949778000                       # number of ReadReq miss ticks (Tick)
system.cpu.dcache.ReadReq.missLatency::total 236949778000                       # number of ReadReq miss ticks (Tick)
system.cpu.dcache.ReadReq.accesses::cpu.data      3076209                       # number of ReadReq accesses(hits+misses) (Count)
system.cpu.dcache.ReadReq.accesses::total      3076209                       # number of ReadReq accesses(hits+misses) (Count)
system.cpu.dcache.ReadReq.missRate::cpu.data     0.998800                       # miss rate for ReadReq accesses (Ratio)
system.cpu.dcache.ReadReq.missRate::total     0.998800                       # miss rate for ReadReq accesses (Ratio)
system.cpu.dcache.ReadReq.avgMissLatency::cpu.data 77119.110488                       # average ReadReq miss latency ((Tick/Count))
system.cpu.dcache.ReadReq.avgMissLatency::total 77119.110488                       # average ReadReq miss latency ((Tick/Count))
system.cpu.dcache.ReadReq.mshrHits::cpu.data      1227490                       # number of ReadReq MSHR hits (Count)
system.cpu.dcache.ReadReq.mshrHits::total      1227490                       # number of ReadReq MSHR hits (Count)
system.cpu.dcache.ReadReq.mshrMisses::cpu.data      1845027                       # number of ReadReq MSHR misses (Count)
system.cpu.dcache.ReadReq.mshrMisses::total      1845027                       # number of ReadReq MSHR misses (Count)
system.cpu.dcache.ReadReq.mshrMissLatency::cpu.data 156400723000                       # number of ReadReq MSHR miss ticks (Tick)
system.cpu.dcache.ReadReq.mshrMissLatency::total 156400723000                       # number of ReadReq MSHR miss ticks (Tick)
system.cpu.dcache.ReadReq.mshrMissRate::cpu.data     0.599773                       # mshr miss rate for ReadReq accesses (Ratio)
system.cpu.dcache.ReadReq.mshrMissRate::total     0.599773                       # mshr miss rate for ReadReq accesses (Ratio)
system.cpu.dcache.ReadReq.avgMshrMissLatency::cpu.data 84768.799047                       # average ReadReq mshr miss latency ((Tick/Count))
system.cpu.dcache.ReadReq.avgMshrMissLatency::total 84768.799047                       # average ReadReq mshr miss latency ((Tick/Count))
system.cpu.dcache.WriteReq.hits::cpu.data       614936                       # number of WriteReq hits (Count)
system.cpu.dcache.WriteReq.hits::total         614936                       # number of WriteReq hits (Count)
system.cpu.dcache.WriteReq.accesses::cpu.data       614936                       # number of WriteReq accesses(hits+misses) (Count)
system.cpu.dcache.WriteReq.accesses::total       614936                       # number of WriteReq accesses(hits+misses) (Count)
system.cpu.dcache.power_state.pwrStateResidencyTicks::UNDEFINED  40546575500                       # Cumulative time (in ticks) in various power states (Tick)
system.cpu.dcache.tags.tagsInUse                 1024                       # Average ticks per tags in use ((Tick/Count))
system.cpu.dcache.tags.totalRefs              2516630                       # Total number of references to valid blocks. (Count)
system.cpu.dcache.tags.sampledRefs            1845023                       # Sample count of references to valid blocks. (Count)
system.cpu.dcache.tags.avgRefs               1.364010                       # Average number of references to valid blocks. ((Count/Count))
system.cpu.dcache.tags.warmupTick                   0                       # The tick when the warmup percentage was hit. (Tick)
system.cpu.dcache.tags.occupancies::cpu.data         1024                       # Average occupied blocks per tick, per requestor ((Count/Tick))
system.cpu.dcache.tags.avgOccs::cpu.data            1                       # Average percentage of cache occupancy ((Ratio/Tick))
system.cpu.dcache.tags.avgOccs::total               1                       # Average percentage of cache occupancy ((Ratio/Tick))
system.cpu.dcache.tags.occupanciesTaskId::1024         1024                       # Occupied blocks per task id (Count)
system.cpu.dcache.tags.ageTaskId_1024::0          475                       # Occupied blocks per task id, per block age (Count)
system.cpu.dcache.tags.ageTaskId_1024::1          549                       # Occupied blocks per task id, per block age (Count)
system.cpu.dcache.tags.ratioOccsTaskId::1024            1                       # Ratio of occupied blocks and all blocks, per task id (Ratio)
system.cpu.dcache.tags.tagAccesses           16609603                       # Number of tag accesses (Count)
system.cpu.dcache.tags.dataAccesses          16609603                       # Number of data accesses (Count)
system.cpu.dcache.tags.power_state.pwrStateResidencyTicks::UNDEFINED  40546575500                       # Cumulative time (in ticks) in various power states (Tick)
system.cpu.decode.idleCycles                   668681                       # Number of cycles decode is idle (Cycle)
system.cpu.decode.blockedCycles              75777677                       # Number of cycles decode is blocked (Cycle)
system.cpu.decode.runCycles                   1061675                       # Number of cycles decode is running (Cycle)
system.cpu.decode.unblockCycles               1590564                       # Number of cycles decode is unblocking (Cycle)
system.cpu.decode.squashCycles                  12111                       # Number of cycles decode is squashing (Cycle)
system.cpu.decode.branchResolved               627191                       # Number of times decode resolved a branch (Count)
system.cpu.decode.branchMispred                     5                       # Number of times decode detected a branch misprediction (Count)
system.cpu.decode.decodedInsts               21198424                       # Number of instructions handled by decode (Count)
system.cpu.decode.squashedInsts                     2                       # Number of squashed instructions handled by decode (Count)
system.cpu.fetch.icacheStallCycles            1931831                       # Number of cycles fetch is stalled on an Icache miss (Cycle)
system.cpu.fetch.insts                       18562013                       # Number of instructions fetch has processed (Count)
system.cpu.fetch.branches                      662632                       # Number of branches that fetch encountered (Count)
system.cpu.fetch.predictedBranches             639251                       # Number of branches that fetch has predicted taken (Count)
system.cpu.fetch.cycles                      77166761                       # Number of cycles fetch has run and was not squashing or blocked (Cycle)
system.cpu.fetch.squashCycles                   24232                       # Number of cycles fetch has spent squashing (Cycle)
system.cpu.fetch.cacheLines                   1919048                       # Number of cache lines fetched (Count)
system.cpu.fetch.icacheSquashes                    45                       # Number of outstanding Icache misses that were squashed (Count)
system.cpu.fetch.nisnDist::samples           79110708                       # Number of instructions fetched each cycle (Total) (Count)
system.cpu.fetch.nisnDist::mean              0.275062                       # Number of instructions fetched each cycle (Total) (Count)
system.cpu.fetch.nisnDist::stdev             1.310860                       # Number of instructions fetched each cycle (Total) (Count)
system.cpu.fetch.nisnDist::underflows               0      0.00%      0.00% # Number of instructions fetched each cycle (Total) (Count)
system.cpu.fetch.nisnDist::0                 75288597     95.17%     95.17% # Number of instructions fetched each cycle (Total) (Count)
system.cpu.fetch.nisnDist::1                   320198      0.40%     95.57% # Number of instructions fetched each cycle (Total) (Count)
system.cpu.fetch.nisnDist::2                    42305      0.05%     95.63% # Number of instructions fetched each cycle (Total) (Count)
system.cpu.fetch.nisnDist::3                   272148      0.34%     95.97% # Number of instructions fetched each cycle (Total) (Count)
system.cpu.fetch.nisnDist::4                    41812      0.05%     96.02% # Number of instructions fetched each cycle (Total) (Count)
system.cpu.fetch.nisnDist::5                  1464607      1.85%     97.88% # Number of instructions fetched each cycle (Total) (Count)
system.cpu.fetch.nisnDist::6                    54295      0.07%     97.94% # Number of instructions fetched each cycle (Total) (Count)
system.cpu.fetch.nisnDist::7                   290914      0.37%     98.31% # Number of instructions fetched each cycle (Total) (Count)
system.cpu.fetch.nisnDist::8                  1335832      1.69%    100.00% # Number of instructions fetched each cycle (Total) (Count)
system.cpu.fetch.nisnDist::overflows                0      0.00%    100.00% # Number of instructions fetched each cycle (Total) (Count)
system.cpu.fetch.nisnDist::min_value                0                       # Number of instructions fetched each cycle (Total) (Count)
system.cpu.fetch.nisnDist::max_value                8                       # Number of instructions fetched each cycle (Total) (Count)
system.cpu.fetch.nisnDist::total             79110708                       # Number of instructions fetched each cycle (Total) (Count)
system.cpu.fetch.branchRate                  0.008376                       # Number of branch fetches per cycle (Ratio)
system.cpu.fetch.rate                        0.234628                       # Number of inst fetches per cycle ((Count/Cycle))
system.cpu.icache.demandHits::cpu.inst        1919027                       # number of demand (read+write) hits (Count)
system.cpu.icache.demandHits::total           1919027                       # number of demand (read+write) hits (Count)
system.cpu.icache.overallHits::cpu.inst       1919027                       # number of overall hits (Count)
system.cpu.icache.overallHits::total          1919027                       # number of overall hits (Count)
system.cpu.icache.demandMisses::cpu.inst           21                       # number of demand (read+write) misses (Count)
system.cpu.icache.demandMisses::total              21                       # number of demand (read+write) misses (Count)
system.cpu.icache.overallMisses::cpu.inst           21                       # number of overall misses (Count)
system.cpu.icache.overallMisses::total             21                       # number of overall misses (Count)
system.cpu.icache.demandMissLatency::cpu.inst      1848500                       # number of demand (read+write) miss ticks (Tick)
system.cpu.icache.demandMissLatency::total      1848500                       # number of demand (read+write) miss ticks (Tick)
system.cpu.icache.overallMissLatency::cpu.inst      1848500                       # number of overall miss ticks (Tick)
system.cpu.icache.overallMissLatency::total      1848500                       # number of overall miss ticks (Tick)
system.cpu.icache.demandAccesses::cpu.inst      1919048                       # number of demand (read+write) accesses (Count)
system.cpu.icache.demandAccesses::total       1919048                       # number of demand (read+write) accesses (Count)
system.cpu.icache.overallAccesses::cpu.inst      1919048                       # number of overall (read+write) accesses (Count)
system.cpu.icache.overallAccesses::total      1919048                       # number of overall (read+write) accesses (Count)
system.cpu.icache.demandMissRate::cpu.inst     0.000011                       # miss rate for demand accesses (Ratio)
system.cpu.icache.demandMissRate::total      0.000011                       # miss rate for demand accesses (Ratio)
system.cpu.icache.overallMissRate::cpu.inst     0.000011                       # miss rate for overall accesses (Ratio)
system.cpu.icache.overallMissRate::total     0.000011                       # miss rate for overall accesses (Ratio)
system.cpu.icache.demandAvgMissLatency::cpu.inst 88023.809524                       # average overall miss latency in ticks ((Tick/Count))
system.cpu.icache.demandAvgMissLatency::total 88023.809524                       # average overall miss latency in ticks ((Tick/Count))
system.cpu.icache.overallAvgMissLatency::cpu.inst 88023.809524                       # average overall miss latency ((Tick/Count))
system.cpu.icache.overallAvgMissLatency::total 88023.809524                       # average overall miss latency ((Tick/Count))
system.cpu.icache.blockedCycles::no_mshrs            0                       # number of cycles access was blocked (Cycle)
system.cpu.icache.blockedCycles::no_targets            0                       # number of cycles access was blocked (Cycle)
system.cpu.icache.blockedCauses::no_mshrs            0                       # number of times access was blocked (Count)
system.cpu.icache.blockedCauses::no_targets            0                       # number of times access was blocked (Count)
system.cpu.icache.avgBlocked::no_mshrs            nan                       # average number of cycles each access was blocked ((Cycle/Count))
system.cpu.icache.avgBlocked::no_targets          nan                       # average number of cycles each access was blocked ((Cycle/Count))
system.cpu.icache.writebacks::writebacks           21                       # number of writebacks (Count)
system.cpu.icache.writebacks::total                21                       # number of writebacks (Count)
system.cpu.icache.demandMshrHits::cpu.inst            1                       # number of demand (read+write) MSHR hits (Count)
system.cpu.icache.demandMshrHits::total             1                       # number of demand (read+write) MSHR hits (Count)
system.cpu.icache.overallMshrHits::cpu.inst            1                       # number of overall MSHR hits (Count)
system.cpu.icache.overallMshrHits::total            1                       # number of overall MSHR hits (Count)
system.cpu.icache.demandMshrMisses::cpu.inst           20                       # number of demand (read+write) MSHR misses (Count)
system.cpu.icache.demandMshrMisses::total           20                       # number of demand (read+write) MSHR misses (Count)
system.cpu.icache.overallMshrMisses::cpu.inst           20                       # number of overall MSHR misses (Count)
system.cpu.icache.overallMshrMisses::total           20                       # number of overall MSHR misses (Count)
system.cpu.icache.demandMshrMissLatency::cpu.inst      1763500                       # number of demand (read+write) MSHR miss ticks (Tick)
system.cpu.icache.demandMshrMissLatency::total      1763500                       # number of demand (read+write) MSHR miss ticks (Tick)
system.cpu.icache.overallMshrMissLatency::cpu.inst      1763500                       # number of overall MSHR miss ticks (Tick)
system.cpu.icache.overallMshrMissLatency::total      1763500                       # number of overall MSHR miss ticks (Tick)
system.cpu.icache.demandMshrMissRate::cpu.inst     0.000010                       # mshr miss ratio for demand accesses (Ratio)
system.cpu.icache.demandMshrMissRate::total     0.000010                       # mshr miss ratio for demand accesses (Ratio)
system.cpu.icache.overallMshrMissRate::cpu.inst     0.000010                       # mshr miss ratio for overall accesses (Ratio)
system.cpu.icache.overallMshrMissRate::total     0.000010                       # mshr miss ratio for overall accesses (Ratio)
system.cpu.icache.demandAvgMshrMissLatency::cpu.inst        88175                       # average overall mshr miss latency ((Tick/Count))
system.cpu.icache.demandAvgMshrMissLatency::total        88175                       # average overall mshr miss latency ((Tick/Count))
system.cpu.icache.overallAvgMshrMissLatency::cpu.inst        88175                       # average overall mshr miss latency ((Tick/Count))
system.cpu.icache.overallAvgMshrMissLatency::total        88175                       # average overall mshr miss latency ((Tick/Count))
system.cpu.icache.replacements                     21                       # number of replacements (Count)
system.cpu.icache.ReadReq.hits::cpu.inst      1919027                       # number of ReadReq hits (Count)
system.cpu.icache.ReadReq.hits::total         1919027                       # number of ReadReq hits (Count)
system.cpu.icache.ReadReq.misses::cpu.inst           21                       # number of ReadReq misses (Count)
system.cpu.icache.ReadReq.misses::total            21                       # number of ReadReq misses (Count)
system.cpu.icache.ReadReq.missLatency::cpu.inst      1848500                       # number of ReadReq miss ticks (Tick)
system.cpu.icache.ReadReq.missLatency::total      1848500                       # number of ReadReq miss ticks (Tick)
system.cpu.icache.ReadReq.accesses::cpu.inst      1919048                       # number of ReadReq accesses(hits+misses) (Count)
system.cpu.icache.ReadReq.accesses::total      1919048                       # number of ReadReq accesses(hits+misses) (Count)
system.cpu.icache.ReadReq.missRate::cpu.inst     0.000011                       # miss rate for ReadReq accesses (Ratio)
system.cpu.icache.ReadReq.missRate::total     0.000011                       # miss rate for ReadReq accesses (Ratio)
system.cpu.icache.ReadReq.avgMissLatency::cpu.inst 88023.809524                       # average ReadReq miss latency ((Tick/Count))
system.cpu.icache.ReadReq.avgMissLatency::total 88023.809524                       # average ReadReq miss latency ((Tick/Count))
system.cpu.icache.ReadReq.mshrHits::cpu.inst            1                       # number of ReadReq MSHR hits (Count)
system.cpu.icache.ReadReq.mshrHits::total            1                       # number of ReadReq MSHR hits (Count)
system.cpu.icache.ReadReq.mshrMisses::cpu.inst           20                       # number of ReadReq MSHR misses (Count)
system.cpu.icache.ReadReq.mshrMisses::total           20                       # number of ReadReq MSHR misses (Count)
system.cpu.icache.ReadReq.mshrMissLatency::cpu.inst      1763500                       # number of ReadReq MSHR miss ticks (Tick)
system.cpu.icache.ReadReq.mshrMissLatency::total      1763500                       # number of ReadReq MSHR miss ticks (Tick)
system.cpu.icache.ReadReq.mshrMissRate::cpu.inst     0.000010                       # mshr miss rate for ReadReq accesses (Ratio)
system.cpu.icache.ReadReq.mshrMissRate::total     0.000010                       # mshr miss rate for ReadReq accesses (Ratio)
system.cpu.icache.ReadReq.avgMshrMissLatency::cpu.inst        88175                       # average ReadReq mshr miss latency ((Tick/Count))
system.cpu.icache.ReadReq.avgMshrMissLatency::total        88175                       # average ReadReq mshr miss latency ((Tick/Count))
system.cpu.icache.power_state.pwrStateResidencyTicks::UNDEFINED  40546575500                       # Cumulative time (in ticks) in various power states (Tick)
system.cpu.icache.tags.tagsInUse                  256                       # Average ticks per tags in use ((Tick/Count))
system.cpu.icache.tags.totalRefs                 3006                       # Total number of references to valid blocks. (Count)
system.cpu.icache.tags.sampledRefs                 21                       # Sample count of references to valid blocks. (Count)
system.cpu.icache.tags.avgRefs             143.142857                       # Average number of references to valid blocks. ((Count/Count))
system.cpu.icache.tags.warmupTick                   0                       # The tick when the warmup percentage was hit. (Tick)
system.cpu.icache.tags.occupancies::cpu.inst          256                       # Average occupied blocks per tick, per requestor ((Count/Tick))
system.cpu.icache.tags.avgOccs::cpu.inst            1                       # Average percentage of cache occupancy ((Ratio/Tick))
system.cpu.icache.tags.avgOccs::total               1                       # Average percentage of cache occupancy ((Ratio/Tick))
system.cpu.icache.tags.occupanciesTaskId::1024          256                       # Occupied blocks per task id (Count)
system.cpu.icache.tags.ageTaskId_1024::4          256                       # Occupied blocks per task id, per block age (Count)
system.cpu.icache.tags.ratioOccsTaskId::1024            1                       # Ratio of occupied blocks and all blocks, per task id (Ratio)
system.cpu.icache.tags.tagAccesses            7676213                       # Number of tag accesses (Count)
system.cpu.icache.tags.dataAccesses           7676213                       # Number of data accesses (Count)
system.cpu.icache.tags.power_state.pwrStateResidencyTicks::UNDEFINED  40546575500                       # Cumulative time (in ticks) in various power states (Tick)
system.cpu.iew.idleCycles                           0                       # Number of cycles IEW is idle (Cycle)
system.cpu.iew.squashCycles                     12111                       # Number of cycles IEW is squashing (Cycle)
system.cpu.iew.blockCycles                   59960411                       # Number of cycles IEW is blocking (Cycle)
system.cpu.iew.unblockCycles                   753495                       # Number of cycles IEW is unblocking (Cycle)
system.cpu.iew.dispatchedInsts               21137375                       # Number of instructions dispatched to IQ (Count)
system.cpu.iew.dispSquashedInsts                 1394                       # Number of squashed instructions skipped by dispatch (Count)
system.cpu.iew.dispLoadInsts                  3102235                       # Number of dispatched load instructions (Count)
system.cpu.iew.dispStoreInsts                  615599                       # Number of dispatched store instructions (Count)
system.cpu.iew.dispNonSpecInsts                     3                       # Number of dispatched non-speculative instructions (Count)
system.cpu.iew.iqFullEvents                    117905                       # Number of times the IQ has become full, causing a stall (Count)
system.cpu.iew.lsqFullEvents                        0                       # Number of times the LSQ has become full, causing a stall (Count)
system.cpu.iew.memOrderViolationEvents             17                       # Number of memory order violations (Count)
system.cpu.iew.predictedTakenIncorrect          11616                       # Number of branches that were predicted taken incorrectly (Count)
system.cpu.iew.predictedNotTakenIncorrect          222                       # Number of branches that were predicted not taken incorrectly (Count)
system.cpu.iew.branchMispredicts                11838                       # Number of branch mispredicts detected at execute (Count)
system.cpu.iew.instsToCommit                 21097683                       # Cumulative count of insts sent to commit (Count)
system.cpu.iew.writebackCount                21094976                       # Cumulative count of insts written-back (Count)
system.cpu.iew.producerInst                  18211997                       # Number of instructions producing a value (Count)
system.cpu.iew.consumerInst                  23863151                       # Number of instructions consuming a value (Count)
system.cpu.iew.wbRate                        0.266645                       # Insts written-back per cycle ((Count/Cycle))
system.cpu.iew.wbFanout                      0.763185                       # Average fanout of values written-back ((Count/Count))
system.cpu.lsq0.forwLoads                          37                       # Number of loads that had data forwarded from stores (Count)
system.cpu.lsq0.squashedLoads                   27082                       # Number of loads squashed (Count)
system.cpu.lsq0.ignoredResponses                    0                       # Number of memory responses ignored because the instruction is squashed (Count)
system.cpu.lsq0.memOrderViolation                  17                       # Number of memory ordering violations (Count)
system.cpu.lsq0.squashedStores                    659                       # Number of stores squashed (Count)
system.cpu.lsq0.rescheduledLoads                    0                       # Number of loads that were rescheduled (Count)
system.cpu.lsq0.blockedByCache                1841692                       # Number of times an access to memory failed due to the cache being blocked (Count)
system.cpu.lsq0.loadToUse::samples            3075145                       # Distribution of cycle latency between the first time a load is issued and its completion (Unspecified)
system.cpu.lsq0.loadToUse::mean            309.515474                       # Distribution of cycle latency between the first time a load is issued and its completion (Unspecified)
system.cpu.lsq0.loadToUse::stdev           112.896883                       # Distribution of cycle latency between the first time a load is issued and its completion (Unspecified)
system.cpu.lsq0.loadToUse::0-9                    216      0.01%      0.01% # Distribution of cycle latency between the first time a load is issued and its completion (Unspecified)
system.cpu.lsq0.loadToUse::10-19                   30      0.00%      0.01% # Distribution of cycle latency between the first time a load is issued and its completion (Unspecified)
system.cpu.lsq0.loadToUse::20-29                   37      0.00%      0.01% # Distribution of cycle latency between the first time a load is issued and its completion (Unspecified)
system.cpu.lsq0.loadToUse::30-39                   26      0.00%      0.01% # Distribution of cycle latency between the first time a load is issued and its completion (Unspecified)
system.cpu.lsq0.loadToUse::40-49                   32      0.00%      0.01% # Distribution of cycle latency between the first time a load is issued and its completion (Unspecified)
system.cpu.lsq0.loadToUse::50-59                   41      0.00%      0.01% # Distribution of cycle latency between the first time a load is issued and its completion (Unspecified)
system.cpu.lsq0.loadToUse::60-69                   20      0.00%      0.01% # Distribution of cycle latency between the first time a load is issued and its completion (Unspecified)
system.cpu.lsq0.loadToUse::70-79                   28      0.00%      0.01% # Distribution of cycle latency between the first time a load is issued and its completion (Unspecified)
system.cpu.lsq0.loadToUse::80-89                   50      0.00%      0.02% # Distribution of cycle latency between the first time a load is issued and its completion (Unspecified)
system.cpu.lsq0.loadToUse::90-99                   76      0.00%      0.02% # Distribution of cycle latency between the first time a load is issued and its completion (Unspecified)
system.cpu.lsq0.loadToUse::100-109                 97      0.00%      0.02% # Distribution of cycle latency between the first time a load is issued and its completion (Unspecified)
system.cpu.lsq0.loadToUse::110-119                 75      0.00%      0.02% # Distribution of cycle latency between the first time a load is issued and its completion (Unspecified)
system.cpu.lsq0.loadToUse::120-129                 47      0.00%      0.03% # Distribution of cycle latency between the first time a load is issued and its completion (Unspecified)
system.cpu.lsq0.loadToUse::130-139                 41      0.00%      0.03% # Distribution of cycle latency between the first time a load is issued and its completion (Unspecified)
system.cpu.lsq0.loadToUse::140-149              49081      1.60%      1.62% # Distribution of cycle latency between the first time a load is issued and its completion (Unspecified)
system.cpu.lsq0.loadToUse::150-159              44501      1.45%      3.07% # Distribution of cycle latency between the first time a load is issued and its completion (Unspecified)
system.cpu.lsq0.loadToUse::160-169              27224      0.89%      3.96% # Distribution of cycle latency between the first time a load is issued and its completion (Unspecified)
system.cpu.lsq0.loadToUse::170-179              43919      1.43%      5.38% # Distribution of cycle latency between the first time a load is issued and its completion (Unspecified)
system.cpu.lsq0.loadToUse::180-189              42193      1.37%      6.76% # Distribution of cycle latency between the first time a load is issued and its completion (Unspecified)
system.cpu.lsq0.loadToUse::190-199              41121      1.34%      8.09% # Distribution of cycle latency between the first time a load is issued and its completion (Unspecified)
system.cpu.lsq0.loadToUse::200-209              57278      1.86%      9.96% # Distribution of cycle latency between the first time a load is issued and its completion (Unspecified)
system.cpu.lsq0.loadToUse::210-219              69755      2.27%     12.22% # Distribution of cycle latency between the first time a load is issued and its completion (Unspecified)
system.cpu.lsq0.loadToUse::220-229              60128      1.96%     14.18% # Distribution of cycle latency between the first time a load is issued and its completion (Unspecified)
system.cpu.lsq0.loadToUse::230-239              60981      1.98%     16.16% # Distribution of cycle latency between the first time a load is issued and its completion (Unspecified)
system.cpu.lsq0.loadToUse::240-249              71233      2.32%     18.48% # Distribution of cycle latency between the first time a load is issued and its completion (Unspecified)
system.cpu.lsq0.loadToUse::250-259              60360      1.96%     20.44% # Distribution of cycle latency between the first time a load is issued and its completion (Unspecified)
system.cpu.lsq0.loadToUse::260-269             224015      7.28%     27.73% # Distribution of cycle latency between the first time a load is issued and its completion (Unspecified)
system.cpu.lsq0.loadToUse::270-279             587820     19.12%     46.84% # Distribution of cycle latency between the first time a load is issued and its completion (Unspecified)
system.cpu.lsq0.loadToUse::280-289             446147     14.51%     61.35% # Distribution of cycle latency between the first time a load is issued and its completion (Unspecified)
system.cpu.lsq0.loadToUse::290-299             198914      6.47%     67.82% # Distribution of cycle latency between the first time a load is issued and its completion (Unspecified)
system.cpu.lsq0.loadToUse::overflows           989659     32.18%    100.00% # Distribution of cycle latency between the first time a load is issued and its completion (Unspecified)
system.cpu.lsq0.loadToUse::min_value                2                       # Distribution of cycle latency between the first time a load is issued and its completion (Unspecified)
system.cpu.lsq0.loadToUse::max_value             1447                       # Distribution of cycle latency between the first time a load is issued and its completion (Unspecified)
system.cpu.lsq0.loadToUse::total              3075145                       # Distribution of cycle latency between the first time a load is issued and its completion (Unspecified)
system.cpu.mmu.alignFaults                          0                       # Number of MMU faults due to alignment restrictions (Count)
system.cpu.mmu.prefetchFaults                       0                       # Number of MMU faults due to prefetch (Count)
system.cpu.mmu.domainFaults                         0                       # Number of MMU faults due to domain restrictions (Count)
system.cpu.mmu.permsFaults                          0                       # Number of MMU faults due to permissions restrictions (Count)
system.cpu.mmu.dtb.readHits                         0                       # Read hits (Count)
system.cpu.mmu.dtb.readMisses                       0                       # Read misses (Count)
system.cpu.mmu.dtb.writeHits                        0                       # Write hits (Count)
system.cpu.mmu.dtb.writeMisses                      0                       # Write misses (Count)
system.cpu.mmu.dtb.inserts                          0                       # Number of times an entry is inserted into the TLB (Count)
system.cpu.mmu.dtb.flushTlb                         0                       # Number of times a TLB invalidation was requested (Count)
system.cpu.mmu.dtb.flushedEntries                   0                       # Number of entries that have been flushed from TLB (Count)
system.cpu.mmu.dtb.readAccesses                     0                       # Read accesses (Count)
system.cpu.mmu.dtb.writeAccesses                    0                       # Write accesses (Count)
system.cpu.mmu.dtb.hits                             0                       # Total TLB (inst and data) hits (Count)
system.cpu.mmu.dtb.misses                           0                       # Total TLB (inst and data) misses (Count)
system.cpu.mmu.dtb.accesses                         0                       # Total TLB (inst and data) accesses (Count)
system.cpu.mmu.dtb_walker.walks                     0                       # Table walker walks requested (Count)
system.cpu.mmu.dtb_walker.requestOrigin_Requested::Data            0                       # Table walker requests started/completed, data/inst (Count)
system.cpu.mmu.dtb_walker.requestOrigin_Requested::Inst            0                       # Table walker requests started/completed, data/inst (Count)
system.cpu.mmu.dtb_walker.requestOrigin_Requested::total            0                       # Table walker requests started/completed, data/inst (Count)
system.cpu.mmu.dtb_walker.requestOrigin_Completed::Data            0                       # Table walker requests started/completed, data/inst (Count)
system.cpu.mmu.dtb_walker.requestOrigin_Completed::Inst            0                       # Table walker requests started/completed, data/inst (Count)
system.cpu.mmu.dtb_walker.requestOrigin_Completed::total            0                       # Table walker requests started/completed, data/inst (Count)
system.cpu.mmu.dtb_walker.requestOrigin::total            0                       # Table walker requests started/completed, data/inst (Count)
[...]
system.mem_ctrls.dram.perBankWrBursts::10            6                       # Per bank write bursts (Count)
system.mem_ctrls.dram.perBankWrBursts::11            3                       # Per bank write bursts (Count)
system.mem_ctrls.dram.perBankWrBursts::12           17                       # Per bank write bursts (Count)
system.mem_ctrls.dram.perBankWrBursts::13           12                       # Per bank write bursts (Count)
system.mem_ctrls.dram.perBankWrBursts::14            2                       # Per bank write bursts (Count)
system.mem_ctrls.dram.perBankWrBursts::15            8                       # Per bank write bursts (Count)
system.mem_ctrls.dram.totQLat                10697250                       # Total ticks spent queuing (Tick)
system.mem_ctrls.dram.totBusLat               2700000                       # Total ticks spent in databus transfers (Tick)
system.mem_ctrls.dram.totMemAccLat           20822250                       # Total ticks spent from burst creation until serviced by the DRAM (Tick)
system.mem_ctrls.dram.avgQLat                19809.72                       # Average queueing delay per DRAM burst ((Tick/Count))
system.mem_ctrls.dram.avgBusLat               5000.00                       # Average bus latency per DRAM burst ((Tick/Count))
system.mem_ctrls.dram.avgMemAccLat           38559.72                       # Average memory access latency per DRAM burst ((Tick/Count))
system.mem_ctrls.dram.readRowHits                 318                       # Number of row buffer hits during reads (Count)
system.mem_ctrls.dram.writeRowHits                140                       # Number of row buffer hits during writes (Count)
system.mem_ctrls.dram.readRowHitRate            58.89                       # Row buffer hit rate for reads (Ratio)
system.mem_ctrls.dram.writeRowHitRate           72.16                       # Row buffer hit rate for writes (Ratio)
system.mem_ctrls.dram.bytesPerActivate::samples          268                       # Bytes accessed per row activation (Byte)
system.mem_ctrls.dram.bytesPerActivate::mean   170.507463                       # Bytes accessed per row activation (Byte)
system.mem_ctrls.dram.bytesPerActivate::gmean   122.252548                       # Bytes accessed per row activation (Byte)
system.mem_ctrls.dram.bytesPerActivate::stdev   173.656631                       # Bytes accessed per row activation (Byte)
system.mem_ctrls.dram.bytesPerActivate::0-127          129     48.13%     48.13% # Bytes accessed per row activation (Byte)
system.mem_ctrls.dram.bytesPerActivate::128-255           79     29.48%     77.61% # Bytes accessed per row activation (Byte)
system.mem_ctrls.dram.bytesPerActivate::256-383           28     10.45%     88.06% # Bytes accessed per row activation (Byte)
system.mem_ctrls.dram.bytesPerActivate::384-511           16      5.97%     94.03% # Bytes accessed per row activation (Byte)
system.mem_ctrls.dram.bytesPerActivate::512-639            6      2.24%     96.27% # Bytes accessed per row activation (Byte)
system.mem_ctrls.dram.bytesPerActivate::640-767            4      1.49%     97.76% # Bytes accessed per row activation (Byte)
system.mem_ctrls.dram.bytesPerActivate::768-895            1      0.37%     98.13% # Bytes accessed per row activation (Byte)
system.mem_ctrls.dram.bytesPerActivate::896-1023            4      1.49%     99.63% # Bytes accessed per row activation (Byte)
system.mem_ctrls.dram.bytesPerActivate::1024-1151            1      0.37%    100.00% # Bytes accessed per row activation (Byte)
system.mem_ctrls.dram.bytesPerActivate::total          268                       # Bytes accessed per row activation (Byte)
system.mem_ctrls.dram.bytesRead                 34560                       # Total bytes read (Byte)
system.mem_ctrls.dram.bytesWritten              12416                       # Total bytes written (Byte)
system.mem_ctrls.dram.avgRdBW             1267.349970                       # Average DRAM read bandwidth in MiBytes/s ((Byte/Second))
system.mem_ctrls.dram.avgWrBW              455.307211                       # Average DRAM write bandwidth in MiBytes/s ((Byte/Second))
system.mem_ctrls.dram.peakBW                 12800.00                       # Theoretical peak bandwidth in MiByte/s ((Byte/Second))
system.mem_ctrls.dram.busUtil                   13.46                       # Data bus utilization in percentage (Ratio)
system.mem_ctrls.dram.busUtilRead                9.90                       # Data bus utilization in percentage for reads (Ratio)
system.mem_ctrls.dram.busUtilWrite               3.56                       # Data bus utilization in percentage for writes (Ratio)
system.mem_ctrls.dram.pageHitRate               62.40                       # Row buffer hit rate, read and write combined (Ratio)
system.mem_ctrls.dram.power_state.pwrStateResidencyTicks::UNDEFINED     27269500                       # Cumulative time (in ticks) in various power states (Tick)
system.mem_ctrls.dram.rank0.actEnergy         1006740                       # Energy for activate commands per rank (pJ) (Joule)
system.mem_ctrls.dram.rank0.preEnergy          527505                       # Energy for precharge commands per rank (pJ) (Joule)
system.mem_ctrls.dram.rank0.readEnergy        1863540                       # Energy for read commands per rank (pJ) (Joule)
system.mem_ctrls.dram.rank0.writeEnergy        595080                       # Energy for write commands per rank (pJ) (Joule)
system.mem_ctrls.dram.rank0.refreshEnergy 1843920.000000                       # Energy for refresh commands per rank (pJ) (Joule)
system.mem_ctrls.dram.rank0.actBackEnergy     12232770                       # Energy for active background per rank (pJ) (Joule)
system.mem_ctrls.dram.rank0.preBackEnergy       169920                       # Energy for precharge background per rank (pJ) (Joule)
system.mem_ctrls.dram.rank0.actPowerDownEnergy            0                       # Energy for active power-down per rank (pJ) (Joule)
system.mem_ctrls.dram.rank0.prePowerDownEnergy            0                       # Energy for precharge power-down per rank (pJ) (Joule)
system.mem_ctrls.dram.rank0.selfRefreshEnergy            0                       # Energy for self refresh per rank (pJ) (Joule)
system.mem_ctrls.dram.rank0.totalEnergy      18239475                       # Total energy per rank (pJ) (Joule)
system.mem_ctrls.dram.rank0.averagePower   668.859898                       # Core power per rank (mW) (Watt)
system.mem_ctrls.dram.rank0.totalIdleTime            0                       # Total Idle time Per DRAM Rank (Tick)
system.mem_ctrls.dram.rank0.pwrStateTime::IDLE       359250                       # Time in different power states (Tick)
system.mem_ctrls.dram.rank0.pwrStateTime::REF       780000                       # Time in different power states (Tick)
system.mem_ctrls.dram.rank0.pwrStateTime::SREF            0                       # Time in different power states (Tick)
system.mem_ctrls.dram.rank0.pwrStateTime::PRE_PDN            0                       # Time in different power states (Tick)
system.mem_ctrls.dram.rank0.pwrStateTime::ACT     26130250                       # Time in different power states (Tick)
system.mem_ctrls.dram.rank0.pwrStateTime::ACT_PDN            0                       # Time in different power states (Tick)
system.mem_ctrls.dram.rank1.actEnergy          963900                       # Energy for activate commands per rank (pJ) (Joule)
system.mem_ctrls.dram.rank1.preEnergy          489555                       # Energy for precharge commands per rank (pJ) (Joule)
system.mem_ctrls.dram.rank1.readEnergy        1992060                       # Energy for read commands per rank (pJ) (Joule)
system.mem_ctrls.dram.rank1.writeEnergy        417600                       # Energy for write commands per rank (pJ) (Joule)
system.mem_ctrls.dram.rank1.refreshEnergy 1843920.000000                       # Energy for refresh commands per rank (pJ) (Joule)
system.mem_ctrls.dram.rank1.actBackEnergy     12232770                       # Energy for active background per rank (pJ) (Joule)
system.mem_ctrls.dram.rank1.preBackEnergy       169920                       # Energy for precharge background per rank (pJ) (Joule)
system.mem_ctrls.dram.rank1.actPowerDownEnergy            0                       # Energy for active power-down per rank (pJ) (Joule)
system.mem_ctrls.dram.rank1.prePowerDownEnergy            0                       # Energy for precharge power-down per rank (pJ) (Joule)
system.mem_ctrls.dram.rank1.selfRefreshEnergy            0                       # Energy for self refresh per rank (pJ) (Joule)
system.mem_ctrls.dram.rank1.totalEnergy      18109725                       # Total energy per rank (pJ) (Joule)
system.mem_ctrls.dram.rank1.averagePower   664.101835                       # Core power per rank (mW) (Watt)
system.mem_ctrls.dram.rank1.totalIdleTime            0                       # Total Idle time Per DRAM Rank (Tick)
system.mem_ctrls.dram.rank1.pwrStateTime::IDLE       358000                       # Time in different power states (Tick)
system.mem_ctrls.dram.rank1.pwrStateTime::REF       780000                       # Time in different power states (Tick)
system.mem_ctrls.dram.rank1.pwrStateTime::SREF            0                       # Time in different power states (Tick)
system.mem_ctrls.dram.rank1.pwrStateTime::PRE_PDN            0                       # Time in different power states (Tick)
system.mem_ctrls.dram.rank1.pwrStateTime::ACT     26131500                       # Time in different power states (Tick)
system.mem_ctrls.dram.rank1.pwrStateTime::ACT_PDN            0                       # Time in different power states (Tick)
system.mem_ctrls.power_state.pwrStateResidencyTicks::UNDEFINED     27269500                       # Cumulative time (in ticks) in various power states (Tick)
system.membus.transDist::ReadResp                 517                       # Transaction distribution (Count)
system.membus.transDist::WritebackDirty           192                       # Transaction distribution (Count)
system.membus.transDist::CleanEvict               523                       # Transaction distribution (Count)
system.membus.transDist::ReadExReq                 26                       # Transaction distribution (Count)
system.membus.transDist::ReadExResp                26                       # Transaction distribution (Count)
system.membus.transDist::ReadSharedReq            514                       # Transaction distribution (Count)
system.membus.transDist::InvalidateReq              3                       # Transaction distribution (Count)
system.membus.pktCount_system.l2.mem_side_port::system.mem_ctrls.port         1801                       # Packet count per connected requestor and responder (Count)
system.membus.pktCount::total                    1801                       # Packet count per connected requestor and responder (Count)
system.membus.pktSize_system.l2.mem_side_port::system.mem_ctrls.port        47040                       # Cumulative packet size per connected requestor and responder (Byte)
system.membus.pktSize::total                    47040                       # Cumulative packet size per connected requestor and responder (Byte)
system.membus.snoops                                0                       # Total snoops (Count)
system.membus.snoopTraffic                          0                       # Total snoop traffic (Byte)
system.membus.snoopFanout::samples                543                       # Request fanout histogram (Count)
system.membus.snoopFanout::mean                     0                       # Request fanout histogram (Count)
system.membus.snoopFanout::stdev                    0                       # Request fanout histogram (Count)
system.membus.snoopFanout::underflows               0      0.00%      0.00% # Request fanout histogram (Count)
system.membus.snoopFanout::0                      543    100.00%    100.00% # Request fanout histogram (Count)
system.membus.snoopFanout::1                        0      0.00%    100.00% # Request fanout histogram (Count)
system.membus.snoopFanout::overflows                0      0.00%    100.00% # Request fanout histogram (Count)
system.membus.snoopFanout::min_value                0                       # Request fanout histogram (Count)
system.membus.snoopFanout::max_value                0                       # Request fanout histogram (Count)
system.membus.snoopFanout::total                  543                       # Request fanout histogram (Count)
system.membus.power_state.pwrStateResidencyTicks::UNDEFINED     27269500                       # Cumulative time (in ticks) in various power states (Tick)
system.membus.reqLayer0.occupancy             2154000                       # Layer occupancy (ticks) (Tick)
system.membus.reqLayer0.utilization               0.1                       # Layer utilization (Ratio)
system.membus.respLayer1.occupancy            2919500                       # Layer occupancy (ticks) (Tick)
system.membus.respLayer1.utilization              0.1                       # Layer utilization (Ratio)
system.membus.snoop_filter.totRequests           1258                       # Total number of requests made to the snoop filter. (Count)
system.membus.snoop_filter.hitSingleRequests          715                       # Number of requests hitting in the snoop filter with a single holder of the requested data. (Count)
system.membus.snoop_filter.hitMultiRequests            0                       # Number of requests hitting in the snoop filter with multiple (>1) holders of the requested data. (Count)
system.membus.snoop_filter.totSnoops                0                       # Total number of snoops made to the snoop filter. (Count)
system.membus.snoop_filter.hitSingleSnoops            0                       # Number of snoops hitting in the snoop filter with a single holder of the requested data. (Count)
system.membus.snoop_filter.hitMultiSnoops            0                       # Number of snoops hitting in the snoop filter with multiple (>1) holders of the requested data. (Count)
system.tol2bus.transDist::ReadResp                538                       # Transaction distribution (Count)
system.tol2bus.transDist::WritebackDirty          273                       # Transaction distribution (Count)
system.tol2bus.transDist::WritebackClean          221                       # Transaction distribution (Count)
system.tol2bus.transDist::CleanEvict              789                       # Transaction distribution (Count)
system.tol2bus.transDist::ReadExReq                26                       # Transaction distribution (Count)
system.tol2bus.transDist::ReadExResp               26                       # Transaction distribution (Count)
system.tol2bus.transDist::ReadCleanReq            222                       # Transaction distribution (Count)
system.tol2bus.transDist::ReadSharedReq           313                       # Transaction distribution (Count)
system.tol2bus.transDist::InvalidateReq             3                       # Transaction distribution (Count)
system.tol2bus.transDist::InvalidateResp            3                       # Transaction distribution (Count)
system.tol2bus.pktCount_system.cpu.icache.mem_side_port::system.l2.cpu_side_port          664                       # Packet count per connected requestor and responder (Count)
system.tol2bus.pktCount_system.cpu.dcache.mem_side_port::system.l2.cpu_side_port         1034                       # Packet count per connected requestor and responder (Count)
system.tol2bus.pktCount::total                   1698                       # Packet count per connected requestor and responder (Count)
system.tol2bus.pktSize_system.cpu.icache.mem_side_port::system.l2.cpu_side_port        28288                       # Cumulative packet size per connected requestor and responder (Byte)
system.tol2bus.pktSize_system.cpu.dcache.mem_side_port::system.l2.cpu_side_port        27136                       # Cumulative packet size per connected requestor and responder (Byte)
system.tol2bus.pktSize::total                   55424                       # Cumulative packet size per connected requestor and responder (Byte)
system.tol2bus.snoops                             716                       # Total snoops (Count)
system.tol2bus.snoopTraffic                     12288                       # Total snoop traffic (Byte)
system.tol2bus.snoopFanout::samples              1280                       # Request fanout histogram (Count)
system.tol2bus.snoopFanout::mean                    0                       # Request fanout histogram (Count)
system.tol2bus.snoopFanout::stdev                   0                       # Request fanout histogram (Count)
system.tol2bus.snoopFanout::underflows              0      0.00%      0.00% # Request fanout histogram (Count)
system.tol2bus.snoopFanout::0                    1280    100.00%    100.00% # Request fanout histogram (Count)
system.tol2bus.snoopFanout::1                       0      0.00%    100.00% # Request fanout histogram (Count)
system.tol2bus.snoopFanout::2                       0      0.00%    100.00% # Request fanout histogram (Count)
system.tol2bus.snoopFanout::overflows               0      0.00%    100.00% # Request fanout histogram (Count)
system.tol2bus.snoopFanout::min_value               0                       # Request fanout histogram (Count)
system.tol2bus.snoopFanout::max_value               0                       # Request fanout histogram (Count)
system.tol2bus.snoopFanout::total                1280                       # Request fanout histogram (Count)
system.tol2bus.power_state.pwrStateResidencyTicks::UNDEFINED     27269500                       # Cumulative time (in ticks) in various power states (Tick)
system.tol2bus.reqLayer0.occupancy             867500                       # Layer occupancy (ticks) (Tick)
system.tol2bus.reqLayer0.utilization              0.0                       # Layer utilization (Ratio)
system.tol2bus.respLayer0.occupancy            331500                       # Layer occupancy (ticks) (Tick)
system.tol2bus.respLayer0.utilization             0.0                       # Layer utilization (Ratio)
system.tol2bus.respLayer1.occupancy            516000                       # Layer occupancy (ticks) (Tick)
system.tol2bus.respLayer1.utilization             0.0                       # Layer utilization (Ratio)
system.tol2bus.snoop_filter.totRequests          1131                       # Total number of requests made to the snoop filter. (Count)
system.tol2bus.snoop_filter.hitSingleRequests          567                       # Number of requests hitting in the snoop filter with a single holder of the requested data. (Count)
system.tol2bus.snoop_filter.hitMultiRequests            0                       # Number of requests hitting in the snoop filter with multiple (>1) holders of the requested data. (Count)
system.tol2bus.snoop_filter.totSnoops               0                       # Total number of snoops made to the snoop filter. (Count)
system.tol2bus.snoop_filter.hitSingleSnoops            0                       # Number of snoops hitting in the snoop filter with a single holder of the requested data. (Count)
system.tol2bus.snoop_filter.hitMultiSnoops            0                       # Number of snoops hitting in the snoop filter with multiple (>1) holders of the requested data. (Count)
system.voltage_domain.voltage                       1                       # Voltage in Volts (Volt)
system.workload.inst.arm                            0                       # number of arm instructions executed (Count)
system.workload.inst.quiesce                        0                       # number of quiesce instructions executed (Count)

---------- End Simulation Statistics   ----------
