
---------- Begin Simulation Statistics ----------
simSeconds                                   0.003210                       # Number of seconds simulated (Second)
simTicks                                   3210345000                       # Number of ticks simulated (Tick)
finalTick                                  5206340000                       # Number of ticks from beginning of simulation (restored from checkpoints and never reset) (Tick)
simFreq                                  1000000000000                       # The number of ticks per simulated second ((Tick/Second))
hostSeconds                                      8.88                       # Real time elapsed on the host (Second)
hostTickRate                                361345334                       # The number of ticks simulated per host second (ticks/s) ((Tick/Second))
hostMemory                                     673984                       # Number of bytes of host memory used (Byte)
simInsts                                      4048308                       # Number of instructions simulated (Count)
simOps                                        4317546                       # Number of ops (including micro ops) simulated (Count)
hostInstRate                                   455657                       # Simulator instruction rate (inst/s) ((Count/Second))
hostOpRate                                     485961                       # Simulator op (including micro ops) rate (op/s) ((Count/Second))
system.clk_domain.clock                          1000                       # Clock period in ticks (Tick)
system.cpu.numCycles                          6420690                       # Number of cpu cycles simulated (Cycle)
system.cpu.numWorkItemsStarted                      0                       # Number of work items this cpu started (Count)
system.cpu.numWorkItemsCompleted                    0                       # Number of work items this cpu completed (Count)
system.cpu.numInsts                           2390135                       # Number of instructions committed (Count)
system.cpu.numOps                             2390244                       # Number of ops (including micro ops) committed (Count)
system.cpu.numDiscardedOps                      18427                       # Number of ops (including micro ops) which were discarded before commit (Count)
system.cpu.numFetchSuspends                         0                       # Number of times Execute suspended instruction fetching (Count)
system.cpu.cpi                               2.686329                       # CPI: cycles per instruction ((Cycle/Count))
system.cpu.ipc                               0.372255                       # IPC: instructions per cycle ((Count/Cycle))
system.cpu.committedInstType_0::No_OpClass           10      0.00%      0.00% # Class of committed instruction (Count)
system.cpu.committedInstType_0::IntAlu        1728933     72.33%     72.33% # Class of committed instruction (Count)
system.cpu.committedInstType_0::IntMult            56      0.00%     72.34% # Class of committed instruction (Count)
system.cpu.committedInstType_0::IntDiv              0      0.00%     72.34% # Class of committed instruction (Count)
system.cpu.committedInstType_0::FloatAdd            0      0.00%     72.34% # Class of committed instruction (Count)
system.cpu.committedInstType_0::FloatCmp            0      0.00%     72.34% # Class of committed instruction (Count)
system.cpu.committedInstType_0::FloatCvt            0      0.00%     72.34% # Class of committed instruction (Count)
system.cpu.committedInstType_0::FloatMult            0      0.00%     72.34% # Class of committed instruction (Count)
system.cpu.committedInstType_0::FloatMultAcc            0      0.00%     72.34% # Class of committed instruction (Count)
system.cpu.committedInstType_0::FloatDiv            0      0.00%     72.34% # Class of committed instruction (Count)
system.cpu.committedInstType_0::FloatMisc            0      0.00%     72.34% # Class of committed instruction (Count)
system.cpu.committedInstType_0::FloatSqrt            0      0.00%     72.34% # Class of committed instruction (Count)
system.cpu.committedInstType_0::SimdAdd            20      0.00%     72.34% # Class of committed instruction (Count)
system.cpu.committedInstType_0::SimdAddAcc            0      0.00%     72.34% # Class of committed instruction (Count)
system.cpu.committedInstType_0::SimdAlu             0      0.00%     72.34% # Class of committed instruction (Count)
system.cpu.committedInstType_0::SimdCmp             0      0.00%     72.34% # Class of committed instruction (Count)
system.cpu.committedInstType_0::SimdCvt             0      0.00%     72.34% # Class of committed instruction (Count)
system.cpu.committedInstType_0::SimdMisc           20      0.00%     72.34% # Class of committed instruction (Count)
system.cpu.committedInstType_0::SimdMult            0      0.00%     72.34% # Class of committed instruction (Count)
system.cpu.committedInstType_0::SimdMultAcc            0      0.00%     72.34% # Class of committed instruction (Count)
system.cpu.committedInstType_0::SimdShift            0      0.00%     72.34% # Class of committed instruction (Count)
system.cpu.committedInstType_0::SimdShiftAcc            0      0.00%     72.34% # Class of committed instruction (Count)
system.cpu.committedInstType_0::SimdDiv             0      0.00%     72.34% # Class of committed instruction (Count)
system.cpu.committedInstType_0::SimdSqrt            0      0.00%     72.34% # Class of committed instruction (Count)
system.cpu.committedInstType_0::SimdFloatAdd            0      0.00%     72.34% # Class of committed instruction (Count)
system.cpu.committedInstType_0::SimdFloatAlu            0      0.00%     72.34% # Class of committed instruction (Count)
system.cpu.committedInstType_0::SimdFloatCmp            0      0.00%     72.34% # Class of committed instruction (Count)
system.cpu.committedInstType_0::SimdFloatCvt            0      0.00%     72.34% # Class of committed instruction (Count)
system.cpu.committedInstType_0::SimdFloatDiv            0      0.00%     72.34% # Class of committed instruction (Count)
system.cpu.committedInstType_0::SimdFloatMisc            0      0.00%     72.34% # Class of committed instruction (Count)
system.cpu.committedInstType_0::SimdFloatMult            0      0.00%     72.34% # Class of committed instruction (Count)
system.cpu.committedInstType_0::SimdFloatMultAcc            0      0.00%     72.34% # Class of committed instruction (Count)
system.cpu.committedInstType_0::SimdFloatSqrt            0      0.00%     72.34% # Class of committed instruction (Count)
system.cpu.committedInstType_0::SimdReduceAdd            0      0.00%     72.34% # Class of committed instruction (Count)
system.cpu.committedInstType_0::SimdReduceAlu            0      0.00%     72.34% # Class of committed instruction (Count)
system.cpu.committedInstType_0::SimdReduceCmp            0      0.00%     72.34% # Class of committed instruction (Count)
system.cpu.committedInstType_0::SimdFloatReduceAdd            0      0.00%     72.34% # Class of committed instruction (Count)
system.cpu.committedInstType_0::SimdFloatReduceCmp            0      0.00%     72.34% # Class of committed instruction (Count)
system.cpu.committedInstType_0::SimdAes             0      0.00%     72.34% # Class of committed instruction (Count)
system.cpu.committedInstType_0::SimdAesMix            0      0.00%     72.34% # Class of committed instruction (Count)
system.cpu.committedInstType_0::SimdSha1Hash            0      0.00%     72.34% # Class of committed instruction (Count)
system.cpu.committedInstType_0::SimdSha1Hash2            0      0.00%     72.34% # Class of committed instruction (Count)
system.cpu.committedInstType_0::SimdSha256Hash            0      0.00%     72.34% # Class of committed instruction (Count)
system.cpu.committedInstType_0::SimdSha256Hash2            0      0.00%     72.34% # Class of committed instruction (Count)
system.cpu.committedInstType_0::SimdShaSigma2            0      0.00%     72.34% # Class of committed instruction (Count)
system.cpu.committedInstType_0::SimdShaSigma3            0      0.00%     72.34% # Class of committed instruction (Count)
system.cpu.committedInstType_0::SimdPredAlu            0      0.00%     72.34% # Class of committed instruction (Count)
system.cpu.committedInstType_0::MemRead        330662     13.83%     86.17% # Class of committed instruction (Count)
system.cpu.committedInstType_0::MemWrite       330543     13.83%    100.00% # Class of committed instruction (Count)
system.cpu.committedInstType_0::FloatMemRead            0      0.00%    100.00% # Class of committed instruction (Count)
system.cpu.committedInstType_0::FloatMemWrite            0      0.00%    100.00% # Class of committed instruction (Count)
system.cpu.committedInstType_0::IprAccess            0      0.00%    100.00% # Class of committed instruction (Count)
system.cpu.committedInstType_0::InstPrefetch            0      0.00%    100.00% # Class of committed instruction (Count)
system.cpu.committedInstType_0::total         2390244                       # Class of committed instruction (Count)
system.cpu.committedControl_0::IsControl       341983                       # Class of control type instructions committed (Count)
system.cpu.committedControl_0::IsDirectControl       341982                       # Class of control type instructions committed (Count)
system.cpu.committedControl_0::IsIndirectControl            1                       # Class of control type instructions committed (Count)
system.cpu.committedControl_0::IsCondControl       341981                       # Class of control type instructions committed (Count)
system.cpu.committedControl_0::IsUncondControl            2                       # Class of control type instructions committed (Count)
system.cpu.committedControl_0::IsCall               1                       # Class of control type instructions committed (Count)
system.cpu.committedControl_0::IsReturn             1                       # Class of control type instructions committed (Count)
system.cpu.branchPred.lookups                  357252                       # Number of BP lookups (Count)
system.cpu.branchPred.condPredicted            357240                       # Number of conditional branches predicted (Count)
system.cpu.branchPred.condIncorrect              6142                       # Number of conditional branches incorrect (Count)
system.cpu.branchPred.BTBLookups               351222                       # Number of BTB lookups (Count)
system.cpu.branchPred.BTBUpdates                   31                       # Number of BTB updates (Count)
system.cpu.branchPred.BTBHits                  351199                       # Number of BTB hits (Count)
system.cpu.branchPred.BTBHitRatio            0.999935                       # BTB Hit Ratio (Ratio)
system.cpu.branchPred.RASUsed                       3                       # Number of times the RAS was used to get a target. (Count)
system.cpu.branchPred.RASIncorrect                  0                       # Number of incorrect RAS predictions. (Count)
system.cpu.branchPred.indirectLookups               0                       # Number of indirect predictor lookups. (Count)
system.cpu.branchPred.indirectHits                  0                       # Number of indirect target hits. (Count)
system.cpu.branchPred.indirectMisses                0                       # Number of indirect misses. (Count)
system.cpu.branchPred.indirectMispredicted            0                       # Number of mispredicted indirect branches. (Count)
system.cpu.dcache.demandHits::cpu.data         495857                       # number of demand (read+write) hits (Count)
system.cpu.dcache.demandHits::total            495857                       # number of demand (read+write) hits (Count)
system.cpu.dcache.overallHits::cpu.data        495857                       # number of overall hits (Count)
system.cpu.dcache.overallHits::total           495857                       # number of overall hits (Count)
system.cpu.dcache.demandMisses::cpu.data       171319                       # number of demand (read+write) misses (Count)
system.cpu.dcache.demandMisses::total          171319                       # number of demand (read+write) misses (Count)
system.cpu.dcache.overallMisses::cpu.data       171319                       # number of overall misses (Count)
system.cpu.dcache.overallMisses::total         171319                       # number of overall misses (Count)
system.cpu.dcache.demandMissLatency::cpu.data   2339126500                       # number of demand (read+write) miss ticks (Tick)
system.cpu.dcache.demandMissLatency::total   2339126500                       # number of demand (read+write) miss ticks (Tick)
system.cpu.dcache.overallMissLatency::cpu.data   2339126500                       # number of overall miss ticks (Tick)
system.cpu.dcache.overallMissLatency::total   2339126500                       # number of overall miss ticks (Tick)
system.cpu.dcache.demandAccesses::cpu.data       667176                       # number of demand (read+write) accesses (Count)
system.cpu.dcache.demandAccesses::total        667176                       # number of demand (read+write) accesses (Count)
system.cpu.dcache.overallAccesses::cpu.data       667176                       # number of overall (read+write) accesses (Count)
system.cpu.dcache.overallAccesses::total       667176                       # number of overall (read+write) accesses (Count)
system.cpu.dcache.demandMissRate::cpu.data     0.256782                       # miss rate for demand accesses (Ratio)
system.cpu.dcache.demandMissRate::total      0.256782                       # miss rate for demand accesses (Ratio)
system.cpu.dcache.overallMissRate::cpu.data     0.256782                       # miss rate for overall accesses (Ratio)
system.cpu.dcache.overallMissRate::total     0.256782                       # miss rate for overall accesses (Ratio)
system.cpu.dcache.demandAvgMissLatency::cpu.data 13653.631529                       # average overall miss latency in ticks ((Tick/Count))
system.cpu.dcache.demandAvgMissLatency::total 13653.631529                       # average overall miss latency in ticks ((Tick/Count))
system.cpu.dcache.overallAvgMissLatency::cpu.data 13653.631529                       # average overall miss latency ((Tick/Count))
system.cpu.dcache.overallAvgMissLatency::total 13653.631529                       # average overall miss latency ((Tick/Count))
system.cpu.dcache.blockedCycles::no_mshrs            0                       # number of cycles access was blocked (Cycle)
system.cpu.dcache.blockedCycles::no_targets            0                       # number of cycles access was blocked (Cycle)
system.cpu.dcache.blockedCauses::no_mshrs            0                       # number of times access was blocked (Count)
system.cpu.dcache.blockedCauses::no_targets            0                       # number of times access was blocked (Count)
system.cpu.dcache.avgBlocked::no_mshrs            nan                       # average number of cycles each access was blocked ((Cycle/Count))
system.cpu.dcache.avgBlocked::no_targets          nan                       # average number of cycles each access was blocked ((Cycle/Count))
system.cpu.dcache.writebacks::writebacks       167660                       # number of writebacks (Count)
system.cpu.dcache.writebacks::total            167660                       # number of writebacks (Count)
system.cpu.dcache.demandMshrHits::cpu.data            3                       # number of demand (read+write) MSHR hits (Count)
system.cpu.dcache.demandMshrHits::total             3                       # number of demand (read+write) MSHR hits (Count)
system.cpu.dcache.overallMshrHits::cpu.data            3                       # number of overall MSHR hits (Count)
system.cpu.dcache.overallMshrHits::total            3                       # number of overall MSHR hits (Count)
system.cpu.dcache.demandMshrMisses::cpu.data       171316                       # number of demand (read+write) MSHR misses (Count)
system.cpu.dcache.demandMshrMisses::total       171316                       # number of demand (read+write) MSHR misses (Count)
system.cpu.dcache.overallMshrMisses::cpu.data       171316                       # number of overall MSHR misses (Count)
system.cpu.dcache.overallMshrMisses::total       171316                       # number of overall MSHR misses (Count)
system.cpu.dcache.demandMshrMissLatency::cpu.data   2167564500                       # number of demand (read+write) MSHR miss ticks (Tick)
system.cpu.dcache.demandMshrMissLatency::total   2167564500                       # number of demand (read+write) MSHR miss ticks (Tick)
system.cpu.dcache.overallMshrMissLatency::cpu.data   2167564500                       # number of overall MSHR miss ticks (Tick)
system.cpu.dcache.overallMshrMissLatency::total   2167564500                       # number of overall MSHR miss ticks (Tick)
system.cpu.dcache.demandMshrMissRate::cpu.data     0.256778                       # mshr miss ratio for demand accesses (Ratio)
system.cpu.dcache.demandMshrMissRate::total     0.256778                       # mshr miss ratio for demand accesses (Ratio)
system.cpu.dcache.overallMshrMissRate::cpu.data     0.256778                       # mshr miss ratio for overall accesses (Ratio)
system.cpu.dcache.overallMshrMissRate::total     0.256778                       # mshr miss ratio for overall accesses (Ratio)
system.cpu.dcache.demandAvgMshrMissLatency::cpu.data 12652.434682                       # average overall mshr miss latency ((Tick/Count))
system.cpu.dcache.demandAvgMshrMissLatency::total 12652.434682                       # average overall mshr miss latency ((Tick/Count))
system.cpu.dcache.overallAvgMshrMissLatency::cpu.data 12652.434682                       # average overall mshr miss latency ((Tick/Count))
system.cpu.dcache.overallAvgMshrMissLatency::total 12652.434682                       # average overall mshr miss latency ((Tick/Count))
system.cpu.dcache.replacements                 171317                       # number of replacements (Count)
system.cpu.dcache.ReadReq.hits::cpu.data       165317                       # number of ReadReq hits (Count)
system.cpu.dcache.ReadReq.hits::total          165317                       # number of ReadReq hits (Count)
system.cpu.dcache.ReadReq.misses::cpu.data       171316                       # number of ReadReq misses (Count)
system.cpu.dcache.ReadReq.misses::total        171316                       # number of ReadReq misses (Count)
system.cpu.dcache.ReadReq.missLatency::cpu.data   2339015500                       # number of ReadReq miss ticks (Tick)
system.cpu.dcache.ReadReq.missLatency::total   2339015500                       # number of ReadReq miss ticks (Tick)
system.cpu.dcache.ReadReq.accesses::cpu.data       336633                       # number of ReadReq accesses(hits+misses) (Count)
system.cpu.dcache.ReadReq.accesses::total       336633                       # number of ReadReq accesses(hits+misses) (Count)
system.cpu.dcache.ReadReq.missRate::cpu.data     0.508910                       # miss rate for ReadReq accesses (Ratio)
system.cpu.dcache.ReadReq.missRate::total     0.508910                       # miss rate for ReadReq accesses (Ratio)
system.cpu.dcache.ReadReq.avgMissLatency::cpu.data 13653.222700                       # average ReadReq miss latency ((Tick/Count))
system.cpu.dcache.ReadReq.avgMissLatency::total 13653.222700                       # average ReadReq miss latency ((Tick/Count))
system.cpu.dcache.ReadReq.mshrHits::cpu.data            3                       # number of ReadReq MSHR hits (Count)
system.cpu.dcache.ReadReq.mshrHits::total            3                       # number of ReadReq MSHR hits (Count)
system.cpu.dcache.ReadReq.mshrMisses::cpu.data       171313                       # number of ReadReq MSHR misses (Count)
system.cpu.dcache.ReadReq.mshrMisses::total       171313                       # number of ReadReq MSHR misses (Count)
system.cpu.dcache.ReadReq.mshrMissLatency::cpu.data   2167457500                       # number of ReadReq MSHR miss ticks (Tick)
system.cpu.dcache.ReadReq.mshrMissLatency::total   2167457500                       # number of ReadReq MSHR miss ticks (Tick)
system.cpu.dcache.ReadReq.mshrMissRate::cpu.data     0.508901                       # mshr miss rate for ReadReq accesses (Ratio)
system.cpu.dcache.ReadReq.mshrMissRate::total     0.508901                       # mshr miss rate for ReadReq accesses (Ratio)
system.cpu.dcache.ReadReq.avgMshrMissLatency::cpu.data 12652.031661                       # average ReadReq mshr miss latency ((Tick/Count))
system.cpu.dcache.ReadReq.avgMshrMissLatency::total 12652.031661                       # average ReadReq mshr miss latency ((Tick/Count))
system.cpu.dcache.WriteReq.hits::cpu.data       330540                       # number of WriteReq hits (Count)
system.cpu.dcache.WriteReq.hits::total         330540                       # number of WriteReq hits (Count)
system.cpu.dcache.WriteReq.misses::cpu.data            3                       # number of WriteReq misses (Count)
system.cpu.dcache.WriteReq.misses::total            3                       # number of WriteReq misses (Count)
system.cpu.dcache.WriteReq.missLatency::cpu.data       111000                       # number of WriteReq miss ticks (Tick)
system.cpu.dcache.WriteReq.missLatency::total       111000                       # number of WriteReq miss ticks (Tick)
system.cpu.dcache.WriteReq.accesses::cpu.data       330543                       # number of WriteReq accesses(hits+misses) (Count)
system.cpu.dcache.WriteReq.accesses::total       330543                       # number of WriteReq accesses(hits+misses) (Count)
system.cpu.dcache.WriteReq.missRate::cpu.data     0.000009                       # miss rate for WriteReq accesses (Ratio)
system.cpu.dcache.WriteReq.missRate::total     0.000009                       # miss rate for WriteReq accesses (Ratio)
system.cpu.dcache.WriteReq.avgMissLatency::cpu.data        37000                       # average WriteReq miss latency ((Tick/Count))
system.cpu.dcache.WriteReq.avgMissLatency::total        37000                       # average WriteReq miss latency ((Tick/Count))
system.cpu.dcache.WriteReq.mshrMisses::cpu.data            3                       # number of WriteReq MSHR misses (Count)
system.cpu.dcache.WriteReq.mshrMisses::total            3                       # number of WriteReq MSHR misses (Count)
system.cpu.dcache.WriteReq.mshrMissLatency::cpu.data       107000                       # number of WriteReq MSHR miss ticks (Tick)
system.cpu.dcache.WriteReq.mshrMissLatency::total       107000                       # number of WriteReq MSHR miss ticks (Tick)
system.cpu.dcache.WriteReq.mshrMissRate::cpu.data     0.000009                       # mshr miss rate for WriteReq accesses (Ratio)
system.cpu.dcache.WriteReq.mshrMissRate::total     0.000009                       # mshr miss rate for WriteReq accesses (Ratio)
system.cpu.dcache.WriteReq.avgMshrMissLatency::cpu.data 35666.666667                       # average WriteReq mshr miss latency ((Tick/Count))
system.cpu.dcache.WriteReq.avgMshrMissLatency::total 35666.666667                       # average WriteReq mshr miss latency ((Tick/Count))
system.cpu.dcache.power_state.pwrStateResidencyTicks::UNDEFINED   5206340000                       # Cumulative time (in ticks) in various power states (Tick)
system.cpu.dcache.tags.tagsInUse                 1024                       # Average ticks per tags in use ((Tick/Count))
system.cpu.dcache.tags.totalRefs               715796                       # Total number of references to valid blocks. (Count)
system.cpu.dcache.tags.sampledRefs             171317                       # Sample count of references to valid blocks. (Count)
system.cpu.dcache.tags.avgRefs               4.178196                       # Average number of references to valid blocks. ((Count/Count))
system.cpu.dcache.tags.warmupTick                   0                       # The tick when the warmup percentage was hit. (Tick)
system.cpu.dcache.tags.occupancies::cpu.data         1024                       # Average occupied blocks per tick, per requestor ((Count/Tick))
system.cpu.dcache.tags.avgOccs::cpu.data            1                       # Average percentage of cache occupancy ((Ratio/Tick))
system.cpu.dcache.tags.avgOccs::total               1                       # Average percentage of cache occupancy ((Ratio/Tick))
system.cpu.dcache.tags.occupanciesTaskId::1024         1024                       # Occupied blocks per task id (Count)
system.cpu.dcache.tags.ageTaskId_1024::0          559                       # Occupied blocks per task id, per block age (Count)
system.cpu.dcache.tags.ageTaskId_1024::1          465                       # Occupied blocks per task id, per block age (Count)
system.cpu.dcache.tags.ratioOccsTaskId::1024            1                       # Ratio of occupied blocks and all blocks, per task id (Ratio)
system.cpu.dcache.tags.tagAccesses            2840021                       # Number of tag accesses (Count)
system.cpu.dcache.tags.dataAccesses           2840021                       # Number of data accesses (Count)
system.cpu.dcache.tags.power_state.pwrStateResidencyTicks::UNDEFINED   5206340000                       # Cumulative time (in ticks) in various power states (Tick)
system.cpu.fetch2.intInstructions             1454271                       # Number of integer instructions successfully decoded (Count)
system.cpu.fetch2.fpInstructions                    0                       # Number of floating point instructions successfully decoded (Count)
system.cpu.fetch2.vecInstructions                  40                       # Number of SIMD instructions successfully decoded (Count)
system.cpu.fetch2.loadInstructions             348753                       # Number of memory load instructions successfully decoded (Count)
system.cpu.fetch2.storeInstructions            348569                       # Number of memory store instructions successfully decoded (Count)
system.cpu.fetch2.amoInstructions                   0                       # Number of memory atomic instructions successfully decoded (Count)
system.cpu.icache.demandHits::cpu.inst        1066583                       # number of demand (read+write) hits (Count)
system.cpu.icache.demandHits::total           1066583                       # number of demand (read+write) hits (Count)
system.cpu.icache.overallHits::cpu.inst       1066583                       # number of overall hits (Count)
system.cpu.icache.overallHits::total          1066583                       # number of overall hits (Count)
system.cpu.icache.demandMisses::cpu.inst           20                       # number of demand (read+write) misses (Count)
system.cpu.icache.demandMisses::total              20                       # number of demand (read+write) misses (Count)
system.cpu.icache.overallMisses::cpu.inst           20                       # number of overall misses (Count)
system.cpu.icache.overallMisses::total             20                       # number of overall misses (Count)
system.cpu.icache.demandMissLatency::cpu.inst      1777500                       # number of demand (read+write) miss ticks (Tick)
system.cpu.icache.demandMissLatency::total      1777500                       # number of demand (read+write) miss ticks (Tick)
system.cpu.icache.overallMissLatency::cpu.inst      1777500                       # number of overall miss ticks (Tick)
system.cpu.icache.overallMissLatency::total      1777500                       # number of overall miss ticks (Tick)
system.cpu.icache.demandAccesses::cpu.inst      1066603                       # number of demand (read+write) accesses (Count)
system.cpu.icache.demandAccesses::total       1066603                       # number of demand (read+write) accesses (Count)
system.cpu.icache.overallAccesses::cpu.inst      1066603                       # number of overall (read+write) accesses (Count)
system.cpu.icache.overallAccesses::total      1066603                       # number of overall (read+write) accesses (Count)
system.cpu.icache.demandMissRate::cpu.inst     0.000019                       # miss rate for demand accesses (Ratio)
system.cpu.icache.demandMissRate::total      0.000019                       # miss rate for demand accesses (Ratio)
system.cpu.icache.overallMissRate::cpu.inst     0.000019                       # miss rate for overall accesses (Ratio)
system.cpu.icache.overallMissRate::total     0.000019                       # miss rate for overall accesses (Ratio)
system.cpu.icache.demandAvgMissLatency::cpu.inst        88875                       # average overall miss latency in ticks ((Tick/Count))
system.cpu.icache.demandAvgMissLatency::total        88875                       # average overall miss latency in ticks ((Tick/Count))
system.cpu.icache.overallAvgMissLatency::cpu.inst        88875                       # average overall miss latency ((Tick/Count))
system.cpu.icache.overallAvgMissLatency::total        88875                       # average overall miss latency ((Tick/Count))
system.cpu.icache.blockedCycles::no_mshrs            0                       # number of cycles access was blocked (Cycle)
system.cpu.icache.blockedCycles::no_targets            0                       # number of cycles access was blocked (Cycle)
system.cpu.icache.blockedCauses::no_mshrs            0                       # number of times access was blocked (Count)
system.cpu.icache.blockedCauses::no_targets            0                       # number of times access was blocked (Count)
system.cpu.icache.avgBlocked::no_mshrs            nan                       # average number of cycles each access was blocked ((Cycle/Count))
system.cpu.icache.avgBlocked::no_targets          nan                       # average number of cycles each access was blocked ((Cycle/Count))
system.cpu.icache.writebacks::writebacks           21                       # number of writebacks (Count)
system.cpu.icache.writebacks::total                21                       # number of writebacks (Count)
system.cpu.icache.demandMshrMisses::cpu.inst           20                       # number of demand (read+write) MSHR misses (Count)
system.cpu.icache.demandMshrMisses::total           20                       # number of demand (read+write) MSHR misses (Count)
system.cpu.icache.overallMshrMisses::cpu.inst           20                       # number of overall MSHR misses (Count)
system.cpu.icache.overallMshrMisses::total           20                       # number of overall MSHR misses (Count)
system.cpu.icache.demandMshrMissLatency::cpu.inst      1756500                       # number of demand (read+write) MSHR miss ticks (Tick)
system.cpu.icache.demandMshrMissLatency::total      1756500                       # number of demand (read+write) MSHR miss ticks (Tick)
system.cpu.icache.overallMshrMissLatency::cpu.inst      1756500                       # number of overall MSHR miss ticks (Tick)
system.cpu.icache.overallMshrMissLatency::total      1756500                       # number of overall MSHR miss ticks (Tick)
system.cpu.icache.demandMshrMissRate::cpu.inst     0.000019                       # mshr miss ratio for demand accesses (Ratio)
system.cpu.icache.demandMshrMissRate::total     0.000019                       # mshr miss ratio for demand accesses (Ratio)
system.cpu.icache.overallMshrMissRate::cpu.inst     0.000019                       # mshr miss ratio for overall accesses (Ratio)
system.cpu.icache.overallMshrMissRate::total     0.000019                       # mshr miss ratio for overall accesses (Ratio)
system.cpu.icache.demandAvgMshrMissLatency::cpu.inst        87825                       # average overall mshr miss latency ((Tick/Count))
system.cpu.icache.demandAvgMshrMissLatency::total        87825                       # average overall mshr miss latency ((Tick/Count))
system.cpu.icache.overallAvgMshrMissLatency::cpu.inst        87825                       # average overall mshr miss latency ((Tick/Count))
system.cpu.icache.overallAvgMshrMissLatency::total        87825                       # average overall mshr miss latency ((Tick/Count))
system.cpu.icache.replacements                     21                       # number of replacements (Count)
system.cpu.icache.ReadReq.hits::cpu.inst      1066583                       # number of ReadReq hits (Count)
system.cpu.icache.ReadReq.hits::total         1066583                       # number of ReadReq hits (Count)
system.cpu.icache.ReadReq.misses::cpu.inst           20                       # number of ReadReq misses (Count)
system.cpu.icache.ReadReq.misses::total            20                       # number of ReadReq misses (Count)
system.cpu.icache.ReadReq.missLatency::cpu.inst      1777500                       # number of ReadReq miss ticks (Tick)
system.cpu.icache.ReadReq.missLatency::total      1777500                       # number of ReadReq miss ticks (Tick)
system.cpu.icache.ReadReq.accesses::cpu.inst      1066603                       # number of ReadReq accesses(hits+misses) (Count)
system.cpu.icache.ReadReq.accesses::total      1066603                       # number of ReadReq accesses(hits+misses) (Count)
system.cpu.icache.ReadReq.missRate::cpu.inst     0.000019                       # miss rate for ReadReq accesses (Ratio)
system.cpu.icache.ReadReq.missRate::total     0.000019                       # miss rate for ReadReq accesses (Ratio)
system.cpu.icache.ReadReq.avgMissLatency::cpu.inst        88875                       # average ReadReq miss latency ((Tick/Count))
system.cpu.icache.ReadReq.avgMissLatency::total        88875                       # average ReadReq miss latency ((Tick/Count))
system.cpu.icache.ReadReq.mshrMisses::cpu.inst           20                       # number of ReadReq MSHR misses (Count)
system.cpu.icache.ReadReq.mshrMisses::total           20                       # number of ReadReq MSHR misses (Count)
system.cpu.icache.ReadReq.mshrMissLatency::cpu.inst      1756500                       # number of ReadReq MSHR miss ticks (Tick)
system.cpu.icache.ReadReq.mshrMissLatency::total      1756500                       # number of ReadReq MSHR miss ticks (Tick)
system.cpu.icache.ReadReq.mshrMissRate::cpu.inst     0.000019                       # mshr miss rate for ReadReq accesses (Ratio)
system.cpu.icache.ReadReq.mshrMissRate::total     0.000019                       # mshr miss rate for ReadReq accesses (Ratio)
system.cpu.icache.ReadReq.avgMshrMissLatency::cpu.inst        87825                       # average ReadReq mshr miss latency ((Tick/Count))
system.cpu.icache.ReadReq.avgMshrMissLatency::total        87825                       # average ReadReq mshr miss latency ((Tick/Count))
system.cpu.icache.power_state.pwrStateResidencyTicks::UNDEFINED   5206340000                       # Cumulative time (in ticks) in various power states (Tick)
system.cpu.icache.tags.tagsInUse                  256                       # Average ticks per tags in use ((Tick/Count))
system.cpu.icache.tags.totalRefs                 2441                       # Total number of references to valid blocks. (Count)
system.cpu.icache.tags.sampledRefs                 21                       # Sample count of references to valid blocks. (Count)
system.cpu.icache.tags.avgRefs             116.238095                       # Average number of references to valid blocks. ((Count/Count))
system.cpu.icache.tags.warmupTick                   0                       # The tick when the warmup percentage was hit. (Tick)
system.cpu.icache.tags.occupancies::cpu.inst          256                       # Average occupied blocks per tick, per requestor ((Count/Tick))
system.cpu.icache.tags.avgOccs::cpu.inst            1                       # Average percentage of cache occupancy ((Ratio/Tick))
system.cpu.icache.tags.avgOccs::total               1                       # Average percentage of cache occupancy ((Ratio/Tick))
system.cpu.icache.tags.occupanciesTaskId::1024          256                       # Occupied blocks per task id (Count)
system.cpu.icache.tags.ageTaskId_1024::3          256                       # Occupied blocks per task id, per block age (Count)
system.cpu.icache.tags.ratioOccsTaskId::1024            1                       # Ratio of occupied blocks and all blocks, per task id (Ratio)
system.cpu.icache.tags.tagAccesses            4266433                       # Number of tag accesses (Count)
system.cpu.icache.tags.dataAccesses           4266433                       # Number of data accesses (Count)
system.cpu.icache.tags.power_state.pwrStateResidencyTicks::UNDEFINED   5206340000                       # Cumulative time (in ticks) in various power states (Tick)
system.cpu.mmu.alignFaults                          0                       # Number of MMU faults due to alignment restrictions (Count)
system.cpu.mmu.prefetchFaults                       0                       # Number of MMU faults due to prefetch (Count)
system.cpu.mmu.domainFaults                         0                       # Number of MMU faults due to domain restrictions (Count)
system.cpu.mmu.permsFaults                          0                       # Number of MMU faults due to permissions restrictions (Count)
system.cpu.mmu.dtb.readHits                         0                       # Read hits (Count)
system.cpu.mmu.dtb.readMisses                       0                       # Read misses (Count)
system.cpu.mmu.dtb.writeHits                        0                       # Write hits (Count)
system.cpu.mmu.dtb.writeMisses                      0                       # Write misses (Count)
system.cpu.mmu.dtb.inserts                          0                       # Number of times an entry is inserted into the TLB (Count)
system.cpu.mmu.dtb.flushTlb                         0                       # Number of times a TLB invalidation was requested (Count)
system.cpu.mmu.dtb.flushedEntries                   0                       # Number of entries that have been flushed from TLB (Count)
system.cpu.mmu.dtb.readAccesses                     0                       # Read accesses (Count)
system.cpu.mmu.dtb.writeAccesses                    0                       # Write accesses (Count)
system.cpu.mmu.dtb.hits                             0                       # Total TLB (inst and data) hits (Count)
system.cpu.mmu.dtb.misses                           0                       # Total TLB (inst and data) misses (Count)
system.cpu.mmu.dtb.accesses                         0                       # Total TLB (inst and data) accesses (Count)
system.cpu.mmu.dtb_walker.walks                     0                       # Table walker walks requested (Count)
system.cpu.mmu.dtb_walker.requestOrigin_Requested::Data            0                       # Table walker requests started/completed, data/inst (Count)
system.cpu.mmu.dtb_walker.requestOrigin_Requested::Inst            0                       # Table walker requests started/completed, data/inst (Count)
system.cpu.mmu.dtb_walker.requestOrigin_Requested::total            0                       # Table walker requests started/completed, data/inst (Count)
system.cpu.mmu.dtb_walker.requestOrigin_Completed::Data            0                       # Table walker requests started/completed, data/inst (Count)
system.cpu.mmu.dtb_walker.requestOrigin_Completed::Inst            0                       # Table walker requests started/completed, data/inst (Count)
system.cpu.mmu.dtb_walker.requestOrigin_Completed::total            0                       # Table walker requests started/completed, data/inst (Count)
system.cpu.mmu.dtb_walker.requestOrigin::total            0                       # Table walker requests started/completed, data/inst (Count)
system.cpu.mmu.dtb_walker.power_state.pwrStateResidencyTicks::UNDEFINED   5206340000                       # Cumulative time (in ticks) in various power states (Tick)
system.cpu.mmu.itb.instHits                         0                       # Inst hits (Count)
system.cpu.mmu.itb.instMisses                       0                       # Inst misses (Count)
system.cpu.mmu.itb.inserts                          0                       # Number of times an entry is inserted into the TLB (Count)
system.cpu.mmu.itb.flushTlb                         0                       # Number of times a TLB invalidation was requested (Count)
system.cpu.mmu.itb.flushedEntries                   0                       # Number of entries that have been flushed from TLB (Count)
system.cpu.mmu.itb.instAccesses                     0                       # Inst accesses (Count)
system.cpu.mmu.itb.hits                             0                       # Total TLB (inst and data) hits (Count)
system.cpu.mmu.itb.misses                           0                       # Total TLB (inst and data) misses (Count)
system.cpu.mmu.itb.accesses                         0                       # Total TLB (inst and data) accesses (Count)
system.cpu.mmu.itb_walker.walks                     0                       # Table walker walks requested (Count)
system.cpu.mmu.itb_walker.requestOrigin_Requested::Data            0                       # Table walker requests started/completed, data/inst (Count)
system.cpu.mmu.itb_walker.requestOrigin_Requested::Inst            0                       # Table walker requests started/completed, data/inst (Count)
system.cpu.mmu.itb_walker.requestOrigin_Requested::total            0                       # Table walker requests started/completed, data/inst (Count)
system.cpu.mmu.itb_walker.requestOrigin_Completed::Data            0                       # Table walker requests started/completed, data/inst (Count)
system.cpu.mmu.itb_walker.requestOrigin_Completed::Inst            0                       # Table walker requests started/completed, data/inst (Count)
system.cpu.mmu.itb_walker.requestOrigin_Completed::total            0                       # Table walker requests started/completed, data/inst (Count)
system.cpu.mmu.itb_walker.requestOrigin::total            0                       # Table walker requests started/completed, data/inst (Count)
system.cpu.mmu.itb_walker.power_state.pwrStateResidencyTicks::UNDEFINED   5206340000                       # Cumulative time (in ticks) in various power states (Tick)
system.cpu.mmu.l2_shared.instHits                   0                       # Inst hits (Count)
system.cpu.mmu.l2_shared.instMisses                 0                       # Inst misses (Count)
system.cpu.mmu.l2_shared.inserts                    0                       # Number of times an entry is inserted into the TLB (Count)
system.cpu.mmu.l2_shared.flushTlb                   0                       # Number of times a TLB invalidation was requested (Count)
system.cpu.mmu.l2_shared.flushedEntries             0                       # Number of entries that have been flushed from TLB (Count)
system.cpu.mmu.l2_shared.instAccesses               0                       # Inst accesses (Count)
system.cpu.mmu.l2_shared.hits                       0                       # Total TLB (inst and data) hits (Count)
system.cpu.mmu.l2_shared.misses                     0                       # Total TLB (inst and data) misses (Count)
system.cpu.mmu.l2_shared.accesses                   0                       # Total TLB (inst and data) accesses (Count)
system.cpu.mmu.stage2_dtb.readHits                  0                       # Read hits (Count)
system.cpu.mmu.stage2_dtb.readMisses                0                       # Read misses (Count)
system.cpu.mmu.stage2_dtb.writeHits                 0                       # Write hits (Count)
system.cpu.mmu.stage2_dtb.writeMisses               0                       # Write misses (Count)
system.cpu.mmu.stage2_dtb.inserts                   0                       # Number of times an entry is inserted into the TLB (Count)
system.cpu.mmu.stage2_dtb.flushTlb                  0                       # Number of times a TLB invalidation was requested (Count)
system.cpu.mmu.stage2_dtb.flushedEntries            0                       # Number of entries that have been flushed from TLB (Count)
system.cpu.mmu.stage2_dtb.readAccesses              0                       # Read accesses (Count)
system.cpu.mmu.stage2_dtb.writeAccesses             0                       # Write accesses (Count)
system.cpu.mmu.stage2_dtb.hits                      0                       # Total TLB (inst and data) hits (Count)
system.cpu.mmu.stage2_dtb.misses                    0                       # Total TLB (inst and data) misses (Count)
system.cpu.mmu.stage2_dtb.accesses                  0                       # Total TLB (inst and data) accesses (Count)
system.cpu.mmu.stage2_dtb_walker.walks              0                       # Table walker walks requested (Count)
system.cpu.mmu.stage2_dtb_walker.requestOrigin_Requested::Data            0                       # Table walker requests started/completed, data/inst (Count)
system.cpu.mmu.stage2_dtb_walker.requestOrigin_Requested::Inst            0                       # Table walker requests started/completed, data/inst (Count)
system.cpu.mmu.stage2_dtb_walker.requestOrigin_Requested::total            0                       # Table walker requests started/completed, data/inst (Count)
system.cpu.mmu.stage2_dtb_walker.requestOrigin_Completed::Data            0                       # Table walker requests started/completed, data/inst (Count)
system.cpu.mmu.stage2_dtb_walker.requestOrigin_Completed::Inst            0                       # Table walker requests started/completed, data/inst (Count)
system.cpu.mmu.stage2_dtb_walker.requestOrigin_Completed::total            0                       # Table walker requests started/completed, data/inst (Count)
system.cpu.mmu.stage2_dtb_walker.requestOrigin::total            0                       # Table walker requests started/completed, data/inst (Count)
system.cpu.mmu.stage2_dtb_walker.power_state.pwrStateResidencyTicks::UNDEFINED   5206340000                       # Cumulative time (in ticks) in various power states (Tick)
system.cpu.mmu.stage2_itb.instHits                  0                       # Inst hits (Count)
system.cpu.mmu.stage2_itb.instMisses                0                       # Inst misses (Count)
system.cpu.mmu.stage2_itb.inserts                   0                       # Number of times an entry is inserted into the TLB (Count)
system.cpu.mmu.stage2_itb.flushTlb                  0                       # Number of times a TLB invalidation was requested (Count)
system.cpu.mmu.stage2_itb.flushedEntries            0                       # Number of entries that have been flushed from TLB (Count)
system.cpu.mmu.stage2_itb.instAccesses              0                       # Inst accesses (Count)
system.cpu.mmu.stage2_itb.hits                      0                       # Total TLB (inst and data) hits (Count)
system.cpu.mmu.stage2_itb.misses                    0                       # Total TLB (inst and data) misses (Count)
system.cpu.mmu.stage2_itb.accesses                  0                       # Total TLB (inst and data) accesses (Count)
system.cpu.mmu.stage2_itb_walker.walks              0                       # Table walker walks requested (Count)
system.cpu.mmu.stage2_itb_walker.requestOrigin_Requested::Data            0                       # Table walker requests started/completed, data/inst (Count)
system.cpu.mmu.stage2_itb_walker.requestOrigin_Requested::Inst            0                       # Table walker requests started/completed, data/inst (Count)
system.cpu.mmu.stage2_itb_walker.requestOrigin_Requested::total            0                       # Table walker requests started/completed, data/inst (Count)
system.cpu.mmu.stage2_itb_walker.requestOrigin_Completed::Data            0                       # Table walker requests started/completed, data/inst (Count)
system.cpu.mmu.stage2_itb_walker.requestOrigin_Completed::Inst            0                       # Table walker requests started/completed, data/inst (Count)
system.cpu.mmu.stage2_itb_walker.requestOrigin_Completed::total            0                       # Table walker requests started/completed, data/inst (Count)
system.cpu.mmu.stage2_itb_walker.requestOrigin::total            0                       # Table walker requests started/completed, data/inst (Count)
system.cpu.mmu.stage2_itb_walker.power_state.pwrStateResidencyTicks::UNDEFINED   5206340000                       # Cumulative time (in ticks) in various power states (Tick)
system.cpu.power_state.pwrStateResidencyTicks::ON   5206340000                       # Cumulative time (in ticks) in various power states (Tick)
system.cpu.thread_0.numInsts                  2390135                       # Number of Instructions committed (Count)
system.cpu.thread_0.numOps                    2390244                       # Number of Ops committed (Count)
system.cpu.thread_0.numMemRefs                      0                       # Number of Memory References (Count)
system.cpu.workload.numSyscalls                     0                       # Number of system calls (Count)
system.cpu_clk_domain.clock                       500                       # Clock period in ticks (Tick)
system.cpu_voltage_domain.voltage                   1                       # Voltage in Volts (Volt)
system.l2.demandHits::cpu.data                 169562                       # number of demand (read+write) hits (Count)
system.l2.demandHits::total                    169562                       # number of demand (read+write) hits (Count)
system.l2.overallHits::cpu.data                169562                       # number of overall hits (Count)
system.l2.overallHits::total                   169562                       # number of overall hits (Count)
system.l2.demandMisses::cpu.inst                   20                       # number of demand (read+write) misses (Count)
system.l2.demandMisses::cpu.data                 1754                       # number of demand (read+write) misses (Count)
system.l2.demandMisses::total                    1774                       # number of demand (read+write) misses (Count)
system.l2.overallMisses::cpu.inst                  20                       # number of overall misses (Count)
system.l2.overallMisses::cpu.data                1754                       # number of overall misses (Count)
system.l2.overallMisses::total                   1774                       # number of overall misses (Count)
system.l2.demandMissLatency::cpu.inst         1713500                       # number of demand (read+write) miss ticks (Tick)
system.l2.demandMissLatency::cpu.data       130186500                       # number of demand (read+write) miss ticks (Tick)
system.l2.demandMissLatency::total          131900000                       # number of demand (read+write) miss ticks (Tick)
system.l2.overallMissLatency::cpu.inst        1713500                       # number of overall miss ticks (Tick)
system.l2.overallMissLatency::cpu.data      130186500                       # number of overall miss ticks (Tick)
system.l2.overallMissLatency::total         131900000                       # number of overall miss ticks (Tick)
system.l2.demandAccesses::cpu.inst                 20                       # number of demand (read+write) accesses (Count)
system.l2.demandAccesses::cpu.data             171316                       # number of demand (read+write) accesses (Count)
system.l2.demandAccesses::total                171336                       # number of demand (read+write) accesses (Count)
system.l2.overallAccesses::cpu.inst                20                       # number of overall (read+write) accesses (Count)
system.l2.overallAccesses::cpu.data            171316                       # number of overall (read+write) accesses (Count)
system.l2.overallAccesses::total               171336                       # number of overall (read+write) accesses (Count)
system.l2.demandMissRate::cpu.inst                  1                       # miss rate for demand accesses (Ratio)
system.l2.demandMissRate::cpu.data           0.010238                       # miss rate for demand accesses (Ratio)
system.l2.demandMissRate::total              0.010354                       # miss rate for demand accesses (Ratio)
system.l2.overallMissRate::cpu.inst                 1                       # miss rate for overall accesses (Ratio)
system.l2.overallMissRate::cpu.data          0.010238                       # miss rate for overall accesses (Ratio)
system.l2.overallMissRate::total             0.010354                       # miss rate for overall accesses (Ratio)
system.l2.demandAvgMissLatency::cpu.inst        85675                       # average overall miss latency in ticks ((Tick/Count))
system.l2.demandAvgMissLatency::cpu.data 74222.633979                       # average overall miss latency in ticks ((Tick/Count))
system.l2.demandAvgMissLatency::total    74351.747463                       # average overall miss latency in ticks ((Tick/Count))
system.l2.overallAvgMissLatency::cpu.inst        85675                       # average overall miss latency ((Tick/Count))
system.l2.overallAvgMissLatency::cpu.data 74222.633979                       # average overall miss latency ((Tick/Count))
system.l2.overallAvgMissLatency::total   74351.747463                       # average overall miss latency ((Tick/Count))
system.l2.blockedCycles::no_mshrs                   0                       # number of cycles access was blocked (Cycle)
system.l2.blockedCycles::no_targets                 0                       # number of cycles access was blocked (Cycle)
system.l2.blockedCauses::no_mshrs                   0                       # number of times access was blocked (Count)
system.l2.blockedCauses::no_targets                 0                       # number of times access was blocked (Count)
system.l2.avgBlocked::no_mshrs                    nan                       # average number of cycles each access was blocked ((Cycle/Count))
system.l2.avgBlocked::no_targets                  nan                       # average number of cycles each access was blocked ((Cycle/Count))
system.l2.writebacks::writebacks                  128                       # number of writebacks (Count)
system.l2.writebacks::total                       128                       # number of writebacks (Count)
system.l2.demandMshrMisses::cpu.inst               20                       # number of demand (read+write) MSHR misses (Count)
system.l2.demandMshrMisses::cpu.data             1754                       # number of demand (read+write) MSHR misses (Count)
system.l2.demandMshrMisses::total                1774                       # number of demand (read+write) MSHR misses (Count)
system.l2.overallMshrMisses::cpu.inst              20                       # number of overall MSHR misses (Count)
system.l2.overallMshrMisses::cpu.data            1754                       # number of overall MSHR misses (Count)
system.l2.overallMshrMisses::total               1774                       # number of overall MSHR misses (Count)
system.l2.demandMshrMissLatency::cpu.inst      1513500                       # number of demand (read+write) MSHR miss ticks (Tick)
system.l2.demandMshrMissLatency::cpu.data    112636500                       # number of demand (read+write) MSHR miss ticks (Tick)
system.l2.demandMshrMissLatency::total      114150000                       # number of demand (read+write) MSHR miss ticks (Tick)
system.l2.overallMshrMissLatency::cpu.inst      1513500                       # number of overall MSHR miss ticks (Tick)
system.l2.overallMshrMissLatency::cpu.data    112636500                       # number of overall MSHR miss ticks (Tick)
system.l2.overallMshrMissLatency::total     114150000                       # number of overall MSHR miss ticks (Tick)
system.l2.demandMshrMissRate::cpu.inst              1                       # mshr miss ratio for demand accesses (Ratio)
system.l2.demandMshrMissRate::cpu.data       0.010238                       # mshr miss ratio for demand accesses (Ratio)
system.l2.demandMshrMissRate::total          0.010354                       # mshr miss ratio for demand accesses (Ratio)
system.l2.overallMshrMissRate::cpu.inst             1                       # mshr miss ratio for overall accesses (Ratio)
system.l2.overallMshrMissRate::cpu.data      0.010238                       # mshr miss ratio for overall accesses (Ratio)
system.l2.overallMshrMissRate::total         0.010354                       # mshr miss ratio for overall accesses (Ratio)
system.l2.demandAvgMshrMissLatency::cpu.inst        75675                       # average overall mshr miss latency ((Tick/Count))
system.l2.demandAvgMshrMissLatency::cpu.data 64216.932725                       # average overall mshr miss latency ((Tick/Count))
system.l2.demandAvgMshrMissLatency::total 64346.110485                       # average overall mshr miss latency ((Tick/Count))
system.l2.overallAvgMshrMissLatency::cpu.inst        75675                       # average overall mshr miss latency ((Tick/Count))
system.l2.overallAvgMshrMissLatency::cpu.data 64216.932725                       # average overall mshr miss latency ((Tick/Count))
system.l2.overallAvgMshrMissLatency::total 64346.110485                       # average overall mshr miss latency ((Tick/Count))
system.l2.replacements                           1840                       # number of replacements (Count)
system.l2.CleanEvict.mshrMisses::writebacks           50                       # number of CleanEvict MSHR misses (Count)
system.l2.CleanEvict.mshrMisses::total             50                       # number of CleanEvict MSHR misses (Count)
system.l2.CleanEvict.mshrMissRate::writebacks          inf                       # mshr miss rate for CleanEvict accesses (Ratio)
system.l2.CleanEvict.mshrMissRate::total          inf                       # mshr miss rate for CleanEvict accesses (Ratio)
system.l2.ReadCleanReq.misses::cpu.inst            20                       # number of ReadCleanReq misses (Count)
system.l2.ReadCleanReq.misses::total               20                       # number of ReadCleanReq misses (Count)
system.l2.ReadCleanReq.missLatency::cpu.inst      1713500                       # number of ReadCleanReq miss ticks (Tick)
system.l2.ReadCleanReq.missLatency::total      1713500                       # number of ReadCleanReq miss ticks (Tick)
system.l2.ReadCleanReq.accesses::cpu.inst           20                       # number of ReadCleanReq accesses(hits+misses) (Count)
system.l2.ReadCleanReq.accesses::total             20                       # number of ReadCleanReq accesses(hits+misses) (Count)
system.l2.ReadCleanReq.missRate::cpu.inst            1                       # miss rate for ReadCleanReq accesses (Ratio)
system.l2.ReadCleanReq.missRate::total              1                       # miss rate for ReadCleanReq accesses (Ratio)
system.l2.ReadCleanReq.avgMissLatency::cpu.inst        85675                       # average ReadCleanReq miss latency ((Tick/Count))
system.l2.ReadCleanReq.avgMissLatency::total        85675                       # average ReadCleanReq miss latency ((Tick/Count))
system.l2.ReadCleanReq.mshrMisses::cpu.inst           20                       # number of ReadCleanReq MSHR misses (Count)
system.l2.ReadCleanReq.mshrMisses::total           20                       # number of ReadCleanReq MSHR misses (Count)
system.l2.ReadCleanReq.mshrMissLatency::cpu.inst      1513500                       # number of ReadCleanReq MSHR miss ticks (Tick)
system.l2.ReadCleanReq.mshrMissLatency::total      1513500                       # number of ReadCleanReq MSHR miss ticks (Tick)
system.l2.ReadCleanReq.mshrMissRate::cpu.inst            1                       # mshr miss rate for ReadCleanReq accesses (Ratio)
system.l2.ReadCleanReq.mshrMissRate::total            1                       # mshr miss rate for ReadCleanReq accesses (Ratio)
system.l2.ReadCleanReq.avgMshrMissLatency::cpu.inst        75675                       # average ReadCleanReq mshr miss latency ((Tick/Count))
system.l2.ReadCleanReq.avgMshrMissLatency::total        75675                       # average ReadCleanReq mshr miss latency ((Tick/Count))
system.l2.ReadExReq.hits::cpu.data                  3                       # number of ReadExReq hits (Count)
system.l2.ReadExReq.hits::total                     3                       # number of ReadExReq hits (Count)
system.l2.ReadExReq.missLatency::cpu.data        69500                       # number of ReadExReq miss ticks (Tick)
system.l2.ReadExReq.missLatency::total          69500                       # number of ReadExReq miss ticks (Tick)
system.l2.ReadExReq.accesses::cpu.data              3                       # number of ReadExReq accesses(hits+misses) (Count)
system.l2.ReadExReq.accesses::total                 3                       # number of ReadExReq accesses(hits+misses) (Count)
system.l2.ReadExReq.avgMissLatency::cpu.data          inf                       # average ReadExReq miss latency ((Tick/Count))
system.l2.ReadExReq.avgMissLatency::total          inf                       # average ReadExReq miss latency ((Tick/Count))
system.l2.ReadExReq.mshrMissLatency::cpu.data        59500                       # number of ReadExReq MSHR miss ticks (Tick)
system.l2.ReadExReq.mshrMissLatency::total        59500                       # number of ReadExReq MSHR miss ticks (Tick)
system.l2.ReadExReq.avgMshrMissLatency::cpu.data          inf                       # average ReadExReq mshr miss latency ((Tick/Count))
system.l2.ReadExReq.avgMshrMissLatency::total          inf                       # average ReadExReq mshr miss latency ((Tick/Count))
system.l2.ReadSharedReq.hits::cpu.data         169559                       # number of ReadSharedReq hits (Count)
system.l2.ReadSharedReq.hits::total            169559                       # number of ReadSharedReq hits (Count)
system.l2.ReadSharedReq.misses::cpu.data         1754                       # number of ReadSharedReq misses (Count)
system.l2.ReadSharedReq.misses::total            1754                       # number of ReadSharedReq misses (Count)
system.l2.ReadSharedReq.missLatency::cpu.data    130117000                       # number of ReadSharedReq miss ticks (Tick)
system.l2.ReadSharedReq.missLatency::total    130117000                       # number of ReadSharedReq miss ticks (Tick)
system.l2.ReadSharedReq.accesses::cpu.data       171313                       # number of ReadSharedReq accesses(hits+misses) (Count)
system.l2.ReadSharedReq.accesses::total        171313                       # number of ReadSharedReq accesses(hits+misses) (Count)
system.l2.ReadSharedReq.missRate::cpu.data     0.010239                       # miss rate for ReadSharedReq accesses (Ratio)
system.l2.ReadSharedReq.missRate::total      0.010239                       # miss rate for ReadSharedReq accesses (Ratio)
system.l2.ReadSharedReq.avgMissLatency::cpu.data 74183.010262                       # average ReadSharedReq miss latency ((Tick/Count))
system.l2.ReadSharedReq.avgMissLatency::total 74183.010262                       # average ReadSharedReq miss latency ((Tick/Count))
system.l2.ReadSharedReq.mshrMisses::cpu.data         1754                       # number of ReadSharedReq MSHR misses (Count)
system.l2.ReadSharedReq.mshrMisses::total         1754                       # number of ReadSharedReq MSHR misses (Count)
system.l2.ReadSharedReq.mshrMissLatency::cpu.data    112577000                       # number of ReadSharedReq MSHR miss ticks (Tick)
system.l2.ReadSharedReq.mshrMissLatency::total    112577000                       # number of ReadSharedReq MSHR miss ticks (Tick)
system.l2.ReadSharedReq.mshrMissRate::cpu.data     0.010239                       # mshr miss rate for ReadSharedReq accesses (Ratio)
system.l2.ReadSharedReq.mshrMissRate::total     0.010239                       # mshr miss rate for ReadSharedReq accesses (Ratio)
system.l2.ReadSharedReq.avgMshrMissLatency::cpu.data 64183.010262                       # average ReadSharedReq mshr miss latency ((Tick/Count))
system.l2.ReadSharedReq.avgMshrMissLatency::total 64183.010262                       # average ReadSharedReq mshr miss latency ((Tick/Count))
system.l2.WritebackClean.hits::writebacks           21                       # number of WritebackClean hits (Count)
system.l2.WritebackClean.hits::total               21                       # number of WritebackClean hits (Count)
system.l2.WritebackClean.accesses::writebacks           21                       # number of WritebackClean accesses(hits+misses) (Count)
system.l2.WritebackClean.accesses::total           21                       # number of WritebackClean accesses(hits+misses) (Count)
system.l2.WritebackDirty.hits::writebacks       167660                       # number of WritebackDirty hits (Count)
system.l2.WritebackDirty.hits::total           167660                       # number of WritebackDirty hits (Count)
system.l2.WritebackDirty.accesses::writebacks       167660                       # number of WritebackDirty accesses(hits+misses) (Count)
system.l2.WritebackDirty.accesses::total       167660                       # number of WritebackDirty accesses(hits+misses) (Count)
system.l2.power_state.pwrStateResidencyTicks::UNDEFINED   5206340000                       # Cumulative time (in ticks) in various power states (Tick)
system.l2.tags.tagsInUse                         4096                       # Average ticks per tags in use ((Tick/Count))
system.l2.tags.totalRefs                         5009                       # Total number of references to valid blocks. (Count)
system.l2.tags.sampledRefs                       1840                       # Sample count of references to valid blocks. (Count)
system.l2.tags.avgRefs                       2.722283                       # Average number of references to valid blocks. ((Count/Count))
system.l2.tags.warmupTick                           0                       # The tick when the warmup percentage was hit. (Tick)
system.l2.tags.occupancies::writebacks     130.890549                       # Average occupied blocks per tick, per requestor ((Count/Tick))
system.l2.tags.occupancies::cpu.inst       661.028414                       # Average occupied blocks per tick, per requestor ((Count/Tick))
system.l2.tags.occupancies::cpu.data      3304.081037                       # Average occupied blocks per tick, per requestor ((Count/Tick))
system.l2.tags.avgOccs::writebacks           0.031956                       # Average percentage of cache occupancy ((Ratio/Tick))
system.l2.tags.avgOccs::cpu.inst             0.161384                       # Average percentage of cache occupancy ((Ratio/Tick))
system.l2.tags.avgOccs::cpu.data             0.806660                       # Average percentage of cache occupancy ((Ratio/Tick))
system.l2.tags.avgOccs::total                       1                       # Average percentage of cache occupancy ((Ratio/Tick))
system.l2.tags.occupanciesTaskId::1024           4096                       # Occupied blocks per task id (Count)
system.l2.tags.ageTaskId_1024::2                    1                       # Occupied blocks per task id, per block age (Count)
system.l2.tags.ageTaskId_1024::3                 4095                       # Occupied blocks per task id, per block age (Count)
system.l2.tags.ratioOccsTaskId::1024                1                       # Ratio of occupied blocks and all blocks, per task id (Ratio)
system.l2.tags.tagAccesses                    2743224                       # Number of tag accesses (Count)
system.l2.tags.dataAccesses                   2743224                       # Number of data accesses (Count)
system.l2.tags.power_state.pwrStateResidencyTicks::UNDEFINED   5206340000                       # Cumulative time (in ticks) in various power states (Tick)
system.mem_ctrls.avgPriority_writebacks::samples       128.00                       # Average QoS priority value for accepted requests (Count)
system.mem_ctrls.avgPriority_cpu.inst::samples        20.00                       # Average QoS priority value for accepted requests (Count)
system.mem_ctrls.avgPriority_cpu.data::samples      1754.00                       # Average QoS priority value for accepted requests (Count)
system.mem_ctrls.priorityMinLatency      0.000000018750                       # per QoS priority minimum request to response latency (Second)
system.mem_ctrls.priorityMaxLatency      0.000162314500                       # per QoS priority maximum request to response latency (Second)
system.mem_ctrls.numReadWriteTurnArounds            8                       # Number of turnarounds from READ to WRITE (Count)
system.mem_ctrls.numWriteReadTurnArounds            8                       # Number of turnarounds from WRITE to READ (Count)
system.mem_ctrls.numStayReadState                4492                       # Number of times bus staying in READ state (Count)
system.mem_ctrls.numStayWriteState                120                       # Number of times bus staying in WRITE state (Count)
system.mem_ctrls.readReqs                        1774                       # Number of read requests accepted (Count)
system.mem_ctrls.writeReqs                        128                       # Number of write requests accepted (Count)
system.mem_ctrls.readBursts                      1774                       # Number of controller read bursts, including those serviced by the write queue (Count)
system.mem_ctrls.writeBursts                      128                       # Number of controller write bursts, including those merged in the write queue (Count)
system.mem_ctrls.servicedByWrQ                      0                       # Number of controller read bursts serviced by the write queue (Count)
system.mem_ctrls.mergedWrBursts                     0                       # Number of controller write bursts merged with an existing one (Count)
system.mem_ctrls.neitherReadNorWriteReqs            0                       # Number of requests that are neither read nor write (Count)
system.mem_ctrls.avgRdQLen                       1.00                       # Average read queue length when enqueuing ((Count/Tick))
system.mem_ctrls.avgWrQLen                      23.35                       # Average write queue length when enqueuing ((Count/Tick))
system.mem_ctrls.numRdRetry                         0                       # Number of times read queue was full causing retry (Count)
system.mem_ctrls.numWrRetry                         0                       # Number of times write queue was full causing retry (Count)
system.mem_ctrls.readPktSize::0                     0                       # Read request sizes (log2) (Count)
system.mem_ctrls.readPktSize::1                     0                       # Read request sizes (log2) (Count)
system.mem_ctrls.readPktSize::2                     0                       # Read request sizes (log2) (Count)
system.mem_ctrls.readPktSize::3                     0                       # Read request sizes (log2) (Count)
system.mem_ctrls.readPktSize::4                     0                       # Read request sizes (log2) (Count)
system.mem_ctrls.readPktSize::5                     0                       # Read request sizes (log2) (Count)
system.mem_ctrls.readPktSize::6                  1774                       # Read request sizes (log2) (Count)
system.mem_ctrls.writePktSize::0                    0                       # Write request sizes (log2) (Count)
system.mem_ctrls.writePktSize::1                    0                       # Write request sizes (log2) (Count)
system.mem_ctrls.writePktSize::2                    0                       # Write request sizes (log2) (Count)
system.mem_ctrls.writePktSize::3                    0                       # Write request sizes (log2) (Count)
system.mem_ctrls.writePktSize::4                    0                       # Write request sizes (log2) (Count)
system.mem_ctrls.writePktSize::5                    0                       # Write request sizes (log2) (Count)
system.mem_ctrls.writePktSize::6                  128                       # Write request sizes (log2) (Count)
system.mem_ctrls.rdQLenPdf::0                    1767                       # What read queue length does an incoming req see (Count)
system.mem_ctrls.rdQLenPdf::1                       7                       # What read queue length does an incoming req see (Count)
system.mem_ctrls.rdQLenPdf::2                       0                       # What read queue length does an incoming req see (Count)
system.mem_ctrls.rdQLenPdf::3                       0                       # What read queue length does an incoming req see (Count)
system.mem_ctrls.rdQLenPdf::4                       0                       # What read queue length does an incoming req see (Count)
system.mem_ctrls.rdQLenPdf::5                       0                       # What read queue length does an incoming req see (Count)
system.mem_ctrls.rdQLenPdf::6                       0                       # What read queue length does an incoming req see (Count)
system.mem_ctrls.rdQLenPdf::7                       0                       # What read queue length does an incoming req see (Count)
system.mem_ctrls.rdQLenPdf::8                       0                       # What read queue length does an incoming req see (Count)
system.mem_ctrls.rdQLenPdf::9                       0                       # What read queue length does an incoming req see (Count)
system.mem_ctrls.rdQLenPdf::10                      0                       # What read queue length does an incoming req see (Count)
system.mem_ctrls.rdQLenPdf::11                      0                       # What read queue length does an incoming req see (Count)
system.mem_ctrls.rdQLenPdf::12                      0                       # What read queue length does an incoming req see (Count)
system.mem_ctrls.rdQLenPdf::13                      0                       # What read queue length does an incoming req see (Count)
system.mem_ctrls.rdQLenPdf::14                      0                       # What read queue length does an incoming req see (Count)
system.mem_ctrls.rdQLenPdf::15                      0                       # What read queue length does an incoming req see (Count)
system.mem_ctrls.rdQLenPdf::16                      0                       # What read queue length does an incoming req see (Count)
system.mem_ctrls.rdQLenPdf::17                      0                       # What read queue length does an incoming req see (Count)
system.mem_ctrls.rdQLenPdf::18                      0                       # What read queue length does an incoming req see (Count)
system.mem_ctrls.rdQLenPdf::19                      0                       # What read queue length does an incoming req see (Count)
system.mem_ctrls.rdQLenPdf::20                      0                       # What read queue length does an incoming req see (Count)
system.mem_ctrls.rdQLenPdf::21                      0                       # What read queue length does an incoming req see (Count)
system.mem_ctrls.rdQLenPdf::22                      0                       # What read queue length does an incoming req see (Count)
system.mem_ctrls.rdQLenPdf::23                      0                       # What read queue length does an incoming req see (Count)
system.mem_ctrls.rdQLenPdf::24                      0                       # What read queue length does an incoming req see (Count)
system.mem_ctrls.rdQLenPdf::25                      0                       # What read queue length does an incoming req see (Count)
system.mem_ctrls.rdQLenPdf::26                      0                       # What read queue length does an incoming req see (Count)
system.mem_ctrls.rdQLenPdf::27                      0                       # What read queue length does an incoming req see (Count)
system.mem_ctrls.rdQLenPdf::28                      0                       # What read queue length does an incoming req see (Count)
system.mem_ctrls.rdQLenPdf::29                      0                       # What read queue length does an incoming req see (Count)
system.mem_ctrls.rdQLenPdf::30                      0                       # What read queue length does an incoming req see (Count)
system.mem_ctrls.rdQLenPdf::31                      0                       # What read queue length does an incoming req see (Count)
system.mem_ctrls.wrQLenPdf::0                       0                       # What write queue length does an incoming req see (Count)
system.mem_ctrls.wrQLenPdf::1                       0                       # What write queue length does an incoming req see (Count)
system.mem_ctrls.wrQLenPdf::2                       0                       # What write queue length does an incoming req see (Count)
system.mem_ctrls.wrQLenPdf::3                       0                       # What write queue length does an incoming req see (Count)
system.mem_ctrls.wrQLenPdf::4                       0                       # What write queue length does an incoming req see (Count)
system.mem_ctrls.wrQLenPdf::5                       0                       # What write queue length does an incoming req see (Count)
system.mem_ctrls.wrQLenPdf::6                       0                       # What write queue length does an incoming req see (Count)
system.mem_ctrls.wrQLenPdf::7                       0                       # What write queue length does an incoming req see (Count)
system.mem_ctrls.wrQLenPdf::8                       0                       # What write queue length does an incoming req see (Count)
system.mem_ctrls.wrQLenPdf::9                       0                       # What write queue length does an incoming req see (Count)
system.mem_ctrls.wrQLenPdf::10                      0                       # What write queue length does an incoming req see (Count)
system.mem_ctrls.wrQLenPdf::11                      0                       # What write queue length does an incoming req see (Count)
system.mem_ctrls.wrQLenPdf::12                      0                       # What write queue length does an incoming req see (Count)
system.mem_ctrls.wrQLenPdf::13                      0                       # What write queue length does an incoming req see (Count)
system.mem_ctrls.wrQLenPdf::14                      0                       # What write queue length does an incoming req see (Count)
system.mem_ctrls.wrQLenPdf::15                      0                       # What write queue length does an incoming req see (Count)
system.mem_ctrls.wrQLenPdf::16                      0                       # What write queue length does an incoming req see (Count)
system.mem_ctrls.wrQLenPdf::17                      8                       # What write queue length does an incoming req see (Count)
system.mem_ctrls.wrQLenPdf::18                      8                       # What write queue length does an incoming req see (Count)
system.mem_ctrls.wrQLenPdf::19                      8                       # What write queue length does an incoming req see (Count)
system.mem_ctrls.wrQLenPdf::20                      8                       # What write queue length does an incoming req see (Count)
[...]
system.mem_ctrls.dram.perBankWrBursts::8           21                       # Per bank write bursts (Count)
system.mem_ctrls.dram.perBankWrBursts::9           14                       # Per bank write bursts (Count)
system.mem_ctrls.dram.perBankWrBursts::10            1                       # Per bank write bursts (Count)
system.mem_ctrls.dram.perBankWrBursts::11            0                       # Per bank write bursts (Count)
system.mem_ctrls.dram.perBankWrBursts::12            0                       # Per bank write bursts (Count)
system.mem_ctrls.dram.perBankWrBursts::13           25                       # Per bank write bursts (Count)
system.mem_ctrls.dram.perBankWrBursts::14            0                       # Per bank write bursts (Count)
system.mem_ctrls.dram.perBankWrBursts::15            0                       # Per bank write bursts (Count)
system.mem_ctrls.dram.totQLat                 4187000                       # Total ticks spent queuing (Tick)
system.mem_ctrls.dram.totBusLat               1860000                       # Total ticks spent in databus transfers (Tick)
system.mem_ctrls.dram.totMemAccLat           11162000                       # Total ticks spent from burst creation until serviced by the DRAM (Tick)
system.mem_ctrls.dram.avgQLat                11255.38                       # Average queueing delay per DRAM burst ((Tick/Count))
system.mem_ctrls.dram.avgBusLat               5000.00                       # Average bus latency per DRAM burst ((Tick/Count))
system.mem_ctrls.dram.avgMemAccLat           30005.38                       # Average memory access latency per DRAM burst ((Tick/Count))
system.mem_ctrls.dram.readRowHits                 230                       # Number of row buffer hits during reads (Count)
system.mem_ctrls.dram.writeRowHits                 55                       # Number of row buffer hits during writes (Count)
system.mem_ctrls.dram.readRowHitRate            61.83                       # Row buffer hit rate for reads (Ratio)
system.mem_ctrls.dram.writeRowHitRate           84.62                       # Row buffer hit rate for writes (Ratio)
system.mem_ctrls.dram.bytesPerActivate::samples          146                       # Bytes accessed per row activation (Byte)
system.mem_ctrls.dram.bytesPerActivate::mean   186.301370                       # Bytes accessed per row activation (Byte)
system.mem_ctrls.dram.bytesPerActivate::gmean   122.022241                       # Bytes accessed per row activation (Byte)
system.mem_ctrls.dram.bytesPerActivate::stdev   216.926664                       # Bytes accessed per row activation (Byte)
system.mem_ctrls.dram.bytesPerActivate::0-127           77     52.74%     52.74% # Bytes accessed per row activation (Byte)
system.mem_ctrls.dram.bytesPerActivate::128-255           38     26.03%     78.77% # Bytes accessed per row activation (Byte)
system.mem_ctrls.dram.bytesPerActivate::256-383           11      7.53%     86.30% # Bytes accessed per row activation (Byte)
system.mem_ctrls.dram.bytesPerActivate::384-511            4      2.74%     89.04% # Bytes accessed per row activation (Byte)
system.mem_ctrls.dram.bytesPerActivate::512-639            4      2.74%     91.78% # Bytes accessed per row activation (Byte)
system.mem_ctrls.dram.bytesPerActivate::640-767            5      3.42%     95.21% # Bytes accessed per row activation (Byte)
system.mem_ctrls.dram.bytesPerActivate::768-895            4      2.74%     97.95% # Bytes accessed per row activation (Byte)
system.mem_ctrls.dram.bytesPerActivate::1024-1151            3      2.05%    100.00% # Bytes accessed per row activation (Byte)
system.mem_ctrls.dram.bytesPerActivate::total          146                       # Bytes accessed per row activation (Byte)
system.mem_ctrls.dram.bytesRead                 23808                       # Total bytes read (Byte)
system.mem_ctrls.dram.bytesWritten               4160                       # Total bytes written (Byte)
system.mem_ctrls.dram.avgRdBW              649.932435                       # Average DRAM read bandwidth in MiBytes/s ((Byte/Second))
system.mem_ctrls.dram.avgWrBW              113.563463                       # Average DRAM write bandwidth in MiBytes/s ((Byte/Second))
system.mem_ctrls.dram.peakBW                 12800.00                       # Theoretical peak bandwidth in MiByte/s ((Byte/Second))
system.mem_ctrls.dram.busUtil                    5.96                       # Data bus utilization in percentage (Ratio)
system.mem_ctrls.dram.busUtilRead                5.08                       # Data bus utilization in percentage for reads (Ratio)
system.mem_ctrls.dram.busUtilWrite               0.89                       # Data bus utilization in percentage for writes (Ratio)
system.mem_ctrls.dram.pageHitRate               65.22                       # Row buffer hit rate, read and write combined (Ratio)
system.mem_ctrls.dram.power_state.pwrStateResidencyTicks::UNDEFINED     36631500                       # Cumulative time (in ticks) in various power states (Tick)
system.mem_ctrls.dram.rank0.actEnergy          478380                       # Energy for activate commands per rank (pJ) (Joule)
system.mem_ctrls.dram.rank0.preEnergy          242880                       # Energy for precharge commands per rank (pJ) (Joule)
system.mem_ctrls.dram.rank0.readEnergy        1063860                       # Energy for read commands per rank (pJ) (Joule)
system.mem_ctrls.dram.rank0.writeEnergy         20880                       # Energy for write commands per rank (pJ) (Joule)
system.mem_ctrls.dram.rank0.refreshEnergy 3073200.000000                       # Energy for refresh commands per rank (pJ) (Joule)
system.mem_ctrls.dram.rank0.actBackEnergy     16064880                       # Energy for active background per rank (pJ) (Joule)
system.mem_ctrls.dram.rank0.preBackEnergy       538560                       # Energy for precharge background per rank (pJ) (Joule)
system.mem_ctrls.dram.rank0.actPowerDownEnergy            0                       # Energy for active power-down per rank (pJ) (Joule)
system.mem_ctrls.dram.rank0.prePowerDownEnergy            0                       # Energy for precharge power-down per rank (pJ) (Joule)
system.mem_ctrls.dram.rank0.selfRefreshEnergy            0                       # Energy for self refresh per rank (pJ) (Joule)
system.mem_ctrls.dram.rank0.totalEnergy      21482640                       # Total energy per rank (pJ) (Joule)
system.mem_ctrls.dram.rank0.averagePower   586.452643                       # Core power per rank (mW) (Watt)
system.mem_ctrls.dram.rank0.totalIdleTime            0                       # Total Idle time Per DRAM Rank (Tick)
system.mem_ctrls.dram.rank0.pwrStateTime::IDLE      1249750                       # Time in different power states (Tick)
system.mem_ctrls.dram.rank0.pwrStateTime::REF      1300000                       # Time in different power states (Tick)
system.mem_ctrls.dram.rank0.pwrStateTime::SREF            0                       # Time in different power states (Tick)
system.mem_ctrls.dram.rank0.pwrStateTime::PRE_PDN            0                       # Time in different power states (Tick)
system.mem_ctrls.dram.rank0.pwrStateTime::ACT     34081750                       # Time in different power states (Tick)
system.mem_ctrls.dram.rank0.pwrStateTime::ACT_PDN            0                       # Time in different power states (Tick)
system.mem_ctrls.dram.rank1.actEnergy          606900                       # Energy for activate commands per rank (pJ) (Joule)
system.mem_ctrls.dram.rank1.preEnergy          311190                       # Energy for precharge commands per rank (pJ) (Joule)
system.mem_ctrls.dram.rank1.readEnergy        1592220                       # Energy for read commands per rank (pJ) (Joule)
system.mem_ctrls.dram.rank1.writeEnergy        318420                       # Energy for write commands per rank (pJ) (Joule)
system.mem_ctrls.dram.rank1.refreshEnergy 3073200.000000                       # Energy for refresh commands per rank (pJ) (Joule)
system.mem_ctrls.dram.rank1.actBackEnergy     16079130                       # Energy for active background per rank (pJ) (Joule)
system.mem_ctrls.dram.rank1.preBackEnergy       526560                       # Energy for precharge background per rank (pJ) (Joule)
system.mem_ctrls.dram.rank1.actPowerDownEnergy            0                       # Energy for active power-down per rank (pJ) (Joule)
system.mem_ctrls.dram.rank1.prePowerDownEnergy            0                       # Energy for precharge power-down per rank (pJ) (Joule)
system.mem_ctrls.dram.rank1.selfRefreshEnergy            0                       # Energy for self refresh per rank (pJ) (Joule)
system.mem_ctrls.dram.rank1.totalEnergy      22507620                       # Total energy per rank (pJ) (Joule)
system.mem_ctrls.dram.rank1.averagePower   614.433479                       # Core power per rank (mW) (Watt)
system.mem_ctrls.dram.rank1.totalIdleTime            0                       # Total Idle time Per DRAM Rank (Tick)
system.mem_ctrls.dram.rank1.pwrStateTime::IDLE      1232750                       # Time in different power states (Tick)
system.mem_ctrls.dram.rank1.pwrStateTime::REF      1300000                       # Time in different power states (Tick)
system.mem_ctrls.dram.rank1.pwrStateTime::SREF            0                       # Time in different power states (Tick)
system.mem_ctrls.dram.rank1.pwrStateTime::PRE_PDN            0                       # Time in different power states (Tick)
system.mem_ctrls.dram.rank1.pwrStateTime::ACT     34098750                       # Time in different power states (Tick)
system.mem_ctrls.dram.rank1.pwrStateTime::ACT_PDN            0                       # Time in different power states (Tick)
system.mem_ctrls.power_state.pwrStateResidencyTicks::UNDEFINED     36631500                       # Cumulative time (in ticks) in various power states (Tick)
system.membus.transDist::ReadResp                 368                       # Transaction distribution (Count)
system.membus.transDist::WritebackDirty            60                       # Transaction distribution (Count)
system.membus.transDist::CleanEvict               328                       # Transaction distribution (Count)
system.membus.transDist::ReadExReq                  5                       # Transaction distribution (Count)
system.membus.transDist::ReadExResp                 5                       # Transaction distribution (Count)
system.membus.transDist::ReadSharedReq            368                       # Transaction distribution (Count)
system.membus.pktCount_system.l2.mem_side_port::system.mem_ctrls.port         1134                       # Packet count per connected requestor and responder (Count)
system.membus.pktCount::total                    1134                       # Packet count per connected requestor and responder (Count)
system.membus.pktSize_system.l2.mem_side_port::system.mem_ctrls.port        27712                       # Cumulative packet size per connected requestor and responder (Byte)
system.membus.pktSize::total                    27712                       # Cumulative packet size per connected requestor and responder (Byte)
system.membus.snoops                                0                       # Total snoops (Count)
system.membus.snoopTraffic                          0                       # Total snoop traffic (Byte)
system.membus.snoopFanout::samples                373                       # Request fanout histogram (Count)
system.membus.snoopFanout::mean                     0                       # Request fanout histogram (Count)
system.membus.snoopFanout::stdev                    0                       # Request fanout histogram (Count)
system.membus.snoopFanout::underflows               0      0.00%      0.00% # Request fanout histogram (Count)
system.membus.snoopFanout::0                      373    100.00%    100.00% # Request fanout histogram (Count)
system.membus.snoopFanout::1                        0      0.00%    100.00% # Request fanout histogram (Count)
system.membus.snoopFanout::overflows                0      0.00%    100.00% # Request fanout histogram (Count)
system.membus.snoopFanout::min_value                0                       # Request fanout histogram (Count)
system.membus.snoopFanout::max_value                0                       # Request fanout histogram (Count)
system.membus.snoopFanout::total                  373                       # Request fanout histogram (Count)
system.membus.power_state.pwrStateResidencyTicks::UNDEFINED     36631500                       # Cumulative time (in ticks) in various power states (Tick)
system.membus.reqLayer0.occupancy             1066500                       # Layer occupancy (ticks) (Tick)
system.membus.reqLayer0.utilization               0.0                       # Layer utilization (Ratio)
system.membus.respLayer1.occupancy            2009250                       # Layer occupancy (ticks) (Tick)
system.membus.respLayer1.utilization              0.1                       # Layer utilization (Ratio)
system.membus.snoop_filter.totRequests            761                       # Total number of requests made to the snoop filter. (Count)
system.membus.snoop_filter.hitSingleRequests          388                       # Number of requests hitting in the snoop filter with a single holder of the requested data. (Count)
system.membus.snoop_filter.hitMultiRequests            0                       # Number of requests hitting in the snoop filter with multiple (>1) holders of the requested data. (Count)
system.membus.snoop_filter.totSnoops                0                       # Total number of snoops made to the snoop filter. (Count)
system.membus.snoop_filter.hitSingleSnoops            0                       # Number of snoops hitting in the snoop filter with a single holder of the requested data. (Count)
system.membus.snoop_filter.hitMultiSnoops            0                       # Number of snoops hitting in the snoop filter with multiple (>1) holders of the requested data. (Count)
system.tol2bus.transDist::ReadResp                559                       # Transaction distribution (Count)
system.tol2bus.transDist::WritebackDirty          365                       # Transaction distribution (Count)
system.tol2bus.transDist::WritebackClean          274                       # Transaction distribution (Count)
system.tol2bus.transDist::CleanEvict              371                       # Transaction distribution (Count)
system.tol2bus.transDist::ReadExReq                29                       # Transaction distribution (Count)
system.tol2bus.transDist::ReadExResp               29                       # Transaction distribution (Count)
system.tol2bus.transDist::ReadCleanReq            275                       # Transaction distribution (Count)
system.tol2bus.transDist::ReadSharedReq           285                       # Transaction distribution (Count)
system.tol2bus.pktCount_system.cpu.icache.mem_side_port::system.l2.cpu_side_port          823                       # Packet count per connected requestor and responder (Count)
system.tol2bus.pktCount_system.cpu.dcache.mem_side_port::system.l2.cpu_side_port          942                       # Packet count per connected requestor and responder (Count)
system.tol2bus.pktCount::total                   1765                       # Packet count per connected requestor and responder (Count)
system.tol2bus.pktSize_system.cpu.icache.mem_side_port::system.l2.cpu_side_port        35072                       # Cumulative packet size per connected requestor and responder (Byte)
system.tol2bus.pktSize_system.cpu.dcache.mem_side_port::system.l2.cpu_side_port        39616                       # Cumulative packet size per connected requestor and responder (Byte)
system.tol2bus.pktSize::total                   74688                       # Cumulative packet size per connected requestor and responder (Byte)
system.tol2bus.snoops                             422                       # Total snoops (Count)
system.tol2bus.snoopTraffic                      3840                       # Total snoop traffic (Byte)
system.tol2bus.snoopFanout::samples              1011                       # Request fanout histogram (Count)
system.tol2bus.snoopFanout::mean             0.033630                       # Request fanout histogram (Count)
system.tol2bus.snoopFanout::stdev            0.180364                       # Request fanout histogram (Count)
system.tol2bus.snoopFanout::underflows              0      0.00%      0.00% # Request fanout histogram (Count)
system.tol2bus.snoopFanout::0                     977     96.64%     96.64% # Request fanout histogram (Count)
system.tol2bus.snoopFanout::1                      34      3.36%    100.00% # Request fanout histogram (Count)
system.tol2bus.snoopFanout::2                       0      0.00%    100.00% # Request fanout histogram (Count)
system.tol2bus.snoopFanout::overflows               0      0.00%    100.00% # Request fanout histogram (Count)
system.tol2bus.snoopFanout::min_value               0                       # Request fanout histogram (Count)
system.tol2bus.snoopFanout::max_value               1                       # Request fanout histogram (Count)
system.tol2bus.snoopFanout::total                1011                       # Request fanout histogram (Count)
system.tol2bus.power_state.pwrStateResidencyTicks::UNDEFINED     36631500                       # Cumulative time (in ticks) in various power states (Tick)
system.tol2bus.reqLayer0.occupancy            1167500                       # Layer occupancy (ticks) (Tick)
system.tol2bus.reqLayer0.utilization              0.0                       # Layer utilization (Ratio)
system.tol2bus.respLayer0.occupancy            411000                       # Layer occupancy (ticks) (Tick)
system.tol2bus.respLayer0.utilization             0.0                       # Layer utilization (Ratio)
system.tol2bus.respLayer1.occupancy            471000                       # Layer occupancy (ticks) (Tick)
system.tol2bus.respLayer1.utilization             0.0                       # Layer utilization (Ratio)
system.tol2bus.snoop_filter.totRequests          1177                       # Total number of requests made to the snoop filter. (Count)
system.tol2bus.snoop_filter.hitSingleRequests          588                       # Number of requests hitting in the snoop filter with a single holder of the requested data. (Count)
system.tol2bus.snoop_filter.hitMultiRequests            0                       # Number of requests hitting in the snoop filter with multiple (>1) holders of the requested data. (Count)
system.tol2bus.snoop_filter.totSnoops              34                       # Total number of snoops made to the snoop filter. (Count)
system.tol2bus.snoop_filter.hitSingleSnoops           34                       # Number of snoops hitting in the snoop filter with a single holder of the requested data. (Count)
system.tol2bus.snoop_filter.hitMultiSnoops            0                       # Number of snoops hitting in the snoop filter with multiple (>1) holders of the requested data. (Count)
system.voltage_domain.voltage                       1                       # Voltage in Volts (Volt)
system.workload.inst.arm                            0                       # number of arm instructions executed (Count)
system.workload.inst.quiesce                        0                       # number of quiesce instructions executed (Count)
system.cpu.idleCycles                           54986                       # Total number of cycles that the object has spent stopped (Unspecified)
system.cpu.tickCycles                           18277                       # Number of cycles that the object actually ticked (Unspecified)

---------- End Simulation Statistics   ----------
