
---------- Begin Simulation Statistics ----------
simSeconds                                   0.001253                       # Number of seconds simulated (Second)
simTicks                                   1253209000                       # Number of ticks simulated (Tick)
finalTick                                  2253373000                       # Number of ticks from beginning of simulation (restored from checkpoints and never reset) (Tick)
simFreq                                  1000000000000                       # The number of ticks per simulated second ((Tick/Second))
hostSeconds                                     26.74                       # Real time elapsed on the host (Second)
hostTickRate                                 46872343                       # The number of ticks simulated per host second (ticks/s) ((Tick/Second))
hostMemory                                     680912                       # Number of bytes of host memory used (Byte)
simInsts                                      8031614                       # Number of instructions simulated (Count)
simOps                                       10724827                       # Number of ops (including micro ops) simulated (Count)
hostInstRate                                   300396                       # Simulator instruction rate (inst/s) ((Count/Second))
hostOpRate                                     401126                       # Simulator op (including micro ops) rate (op/s) ((Count/Second))
system.clk_domain.clock                          1000                       # Clock period in ticks (Tick)
system.cpu.numCycles                          2506418                       # Number of cpu cycles simulated (Cycle)
system.cpu.numWorkItemsStarted                      0                       # Number of work items this cpu started (Count)
system.cpu.numWorkItemsCompleted                    0                       # Number of work items this cpu completed (Count)
system.cpu.instsAdded                         8828431                       # Number of instructions added to the IQ (excludes non-spec) (Count)
system.cpu.nonSpecInstsAdded                      235                       # Number of non-speculative instructions added to the IQ (Count)
system.cpu.instsIssued                        8814469                       # Number of instructions issued (Count)
system.cpu.squashedInstsIssued                    126                       # Number of squashed instructions issued (Count)
system.cpu.squashedInstsExamined                30790                       # Number of squashed instructions iterated over during squash; mainly for profiling (Count)
system.cpu.squashedOperandsExamined             50728                       # Number of squashed operands that are examined and possibly removed from graph (Count)
system.cpu.squashedNonSpecRemoved                  90                       # Number of squashed non-spec instructions that were removed (Count)
system.cpu.numIssuedDist::samples             2473091                       # Number of insts issued each cycle (Count)
system.cpu.numIssuedDist::mean               3.564151                       # Number of insts issued each cycle (Count)
system.cpu.numIssuedDist::stdev              2.943982                       # Number of insts issued each cycle (Count)
system.cpu.numIssuedDist::underflows                0      0.00%      0.00% # Number of insts issued each cycle (Count)
system.cpu.numIssuedDist::0                    732588     29.62%     29.62% # Number of insts issued each cycle (Count)
system.cpu.numIssuedDist::1                    150845      6.10%     35.72% # Number of insts issued each cycle (Count)
system.cpu.numIssuedDist::2                    121738      4.92%     40.64% # Number of insts issued each cycle (Count)
system.cpu.numIssuedDist::3                    147261      5.95%     46.60% # Number of insts issued each cycle (Count)
system.cpu.numIssuedDist::4                    234987      9.50%     56.10% # Number of insts issued each cycle (Count)
system.cpu.numIssuedDist::5                    313571     12.68%     68.78% # Number of insts issued each cycle (Count)
system.cpu.numIssuedDist::6                    233727      9.45%     78.23% # Number of insts issued each cycle (Count)
system.cpu.numIssuedDist::7                    238792      9.66%     87.89% # Number of insts issued each cycle (Count)
system.cpu.numIssuedDist::8                    299582     12.11%    100.00% # Number of insts issued each cycle (Count)
system.cpu.numIssuedDist::overflows                 0      0.00%    100.00% # Number of insts issued each cycle (Count)
system.cpu.numIssuedDist::min_value                 0                       # Number of insts issued each cycle (Count)
system.cpu.numIssuedDist::max_value                 8                       # Number of insts issued each cycle (Count)
system.cpu.numIssuedDist::total               2473091                       # Number of insts issued each cycle (Count)
system.cpu.statFuBusy::No_OpClass                   0      0.00%      0.00% # attempts to use FU when none available (Count)
system.cpu.statFuBusy::IntAlu                     101      0.01%      0.01% # attempts to use FU when none available (Count)
system.cpu.statFuBusy::IntMult                      0      0.00%      0.01% # attempts to use FU when none available (Count)
system.cpu.statFuBusy::IntDiv                       0      0.00%      0.01% # attempts to use FU when none available (Count)
system.cpu.statFuBusy::FloatAdd                     0      0.00%      0.01% # attempts to use FU when none available (Count)
system.cpu.statFuBusy::FloatCmp                     0      0.00%      0.01% # attempts to use FU when none available (Count)
system.cpu.statFuBusy::FloatCvt                     0      0.00%      0.01% # attempts to use FU when none available (Count)
system.cpu.statFuBusy::FloatMult                    0      0.00%      0.01% # attempts to use FU when none available (Count)
system.cpu.statFuBusy::FloatMultAcc                 0      0.00%      0.01% # attempts to use FU when none available (Count)
system.cpu.statFuBusy::FloatDiv                     0      0.00%      0.01% # attempts to use FU when none available (Count)
system.cpu.statFuBusy::FloatMisc                    0      0.00%      0.01% # attempts to use FU when none available (Count)
system.cpu.statFuBusy::FloatSqrt                    0      0.00%      0.01% # attempts to use FU when none available (Count)
system.cpu.statFuBusy::SimdAdd                 102039     13.64%     13.66% # attempts to use FU when none available (Count)
system.cpu.statFuBusy::SimdAddAcc                   0      0.00%     13.66% # attempts to use FU when none available (Count)
system.cpu.statFuBusy::SimdAlu                 200312     26.78%     40.43% # attempts to use FU when none available (Count)
system.cpu.statFuBusy::SimdCmp                      0      0.00%     40.43% # attempts to use FU when none available (Count)
system.cpu.statFuBusy::SimdCvt                      0      0.00%     40.43% # attempts to use FU when none available (Count)
system.cpu.statFuBusy::SimdMisc                 70884      9.48%     49.91% # attempts to use FU when none available (Count)
system.cpu.statFuBusy::SimdMult                     0      0.00%     49.91% # attempts to use FU when none available (Count)
system.cpu.statFuBusy::SimdMultAcc                  0      0.00%     49.91% # attempts to use FU when none available (Count)
system.cpu.statFuBusy::SimdShift                    0      0.00%     49.91% # attempts to use FU when none available (Count)
system.cpu.statFuBusy::SimdShiftAcc                 0      0.00%     49.91% # attempts to use FU when none available (Count)
system.cpu.statFuBusy::SimdDiv                      0      0.00%     49.91% # attempts to use FU when none available (Count)
system.cpu.statFuBusy::SimdSqrt                     0      0.00%     49.91% # attempts to use FU when none available (Count)
system.cpu.statFuBusy::SimdFloatAdd                 0      0.00%     49.91% # attempts to use FU when none available (Count)
system.cpu.statFuBusy::SimdFloatAlu                 0      0.00%     49.91% # attempts to use FU when none available (Count)
system.cpu.statFuBusy::SimdFloatCmp                 0      0.00%     49.91% # attempts to use FU when none available (Count)
system.cpu.statFuBusy::SimdFloatCvt                 0      0.00%     49.91% # attempts to use FU when none available (Count)
system.cpu.statFuBusy::SimdFloatDiv                 0      0.00%     49.91% # attempts to use FU when none available (Count)
system.cpu.statFuBusy::SimdFloatMisc                0      0.00%     49.91% # attempts to use FU when none available (Count)
system.cpu.statFuBusy::SimdFloatMult                0      0.00%     49.91% # attempts to use FU when none available (Count)
system.cpu.statFuBusy::SimdFloatMultAcc             0      0.00%     49.91% # attempts to use FU when none available (Count)
system.cpu.statFuBusy::SimdFloatSqrt                0      0.00%     49.91% # attempts to use FU when none available (Count)
system.cpu.statFuBusy::SimdReduceAdd                0      0.00%     49.91% # attempts to use FU when none available (Count)
system.cpu.statFuBusy::SimdReduceAlu                0      0.00%     49.91% # attempts to use FU when none available (Count)
system.cpu.statFuBusy::SimdReduceCmp                0      0.00%     49.91% # attempts to use FU when none available (Count)
system.cpu.statFuBusy::SimdFloatReduceAdd            0      0.00%     49.91% # attempts to use FU when none available (Count)
system.cpu.statFuBusy::SimdFloatReduceCmp            0      0.00%     49.91% # attempts to use FU when none available (Count)
system.cpu.statFuBusy::SimdAes                      0      0.00%     49.91% # attempts to use FU when none available (Count)
system.cpu.statFuBusy::SimdAesMix                   0      0.00%     49.91% # attempts to use FU when none available (Count)
system.cpu.statFuBusy::SimdSha1Hash                 0      0.00%     49.91% # attempts to use FU when none available (Count)
system.cpu.statFuBusy::SimdSha1Hash2                0      0.00%     49.91% # attempts to use FU when none available (Count)
system.cpu.statFuBusy::SimdSha256Hash               0      0.00%     49.91% # attempts to use FU when none available (Count)
system.cpu.statFuBusy::SimdSha256Hash2              0      0.00%     49.91% # attempts to use FU when none available (Count)
system.cpu.statFuBusy::SimdShaSigma2                0      0.00%     49.91% # attempts to use FU when none available (Count)
system.cpu.statFuBusy::SimdShaSigma3                0      0.00%     49.91% # attempts to use FU when none available (Count)
system.cpu.statFuBusy::SimdPredAlu                  0      0.00%     49.91% # attempts to use FU when none available (Count)
system.cpu.statFuBusy::MemRead                 241038     32.22%     82.14% # attempts to use FU when none available (Count)
system.cpu.statFuBusy::MemWrite                133625     17.86%    100.00% # attempts to use FU when none available (Count)
system.cpu.statFuBusy::FloatMemRead                 0      0.00%    100.00% # attempts to use FU when none available (Count)
system.cpu.statFuBusy::FloatMemWrite                0      0.00%    100.00% # attempts to use FU when none available (Count)
system.cpu.statFuBusy::IprAccess                    0      0.00%    100.00% # attempts to use FU when none available (Count)
system.cpu.statFuBusy::InstPrefetch                 0      0.00%    100.00% # attempts to use FU when none available (Count)
system.cpu.statIssuedInstType_0::No_OpClass       735670      8.35%      8.35% # Number of instructions issued per FU type, per thread (Count)
system.cpu.statIssuedInstType_0::IntAlu       1602863     18.18%     26.53% # Number of instructions issued per FU type, per thread (Count)
system.cpu.statIssuedInstType_0::IntMult           31      0.00%     26.53% # Number of instructions issued per FU type, per thread (Count)
system.cpu.statIssuedInstType_0::IntDiv            15      0.00%     26.53% # Number of instructions issued per FU type, per thread (Count)
system.cpu.statIssuedInstType_0::FloatAdd            0      0.00%     26.53% # Number of instructions issued per FU type, per thread (Count)
system.cpu.statIssuedInstType_0::FloatCmp            0      0.00%     26.53% # Number of instructions issued per FU type, per thread (Count)
system.cpu.statIssuedInstType_0::FloatCvt            0      0.00%     26.53% # Number of instructions issued per FU type, per thread (Count)
system.cpu.statIssuedInstType_0::FloatMult            0      0.00%     26.53% # Number of instructions issued per FU type, per thread (Count)
system.cpu.statIssuedInstType_0::FloatMultAcc            0      0.00%     26.53% # Number of instructions issued per FU type, per thread (Count)
system.cpu.statIssuedInstType_0::FloatDiv            0      0.00%     26.53% # Number of instructions issued per FU type, per thread (Count)
system.cpu.statIssuedInstType_0::FloatMisc            0      0.00%     26.53% # Number of instructions issued per FU type, per thread (Count)
system.cpu.statIssuedInstType_0::FloatSqrt            0      0.00%     26.53% # Number of instructions issued per FU type, per thread (Count)
system.cpu.statIssuedInstType_0::SimdAdd       740534      8.40%     34.93% # Number of instructions issued per FU type, per thread (Count)
system.cpu.statIssuedInstType_0::SimdAddAcc            0      0.00%     34.93% # Number of instructions issued per FU type, per thread (Count)
system.cpu.statIssuedInstType_0::SimdAlu      1489219     16.90%     51.83% # Number of instructions issued per FU type, per thread (Count)
system.cpu.statIssuedInstType_0::SimdCmp            0      0.00%     51.83% # Number of instructions issued per FU type, per thread (Count)
system.cpu.statIssuedInstType_0::SimdCvt            0      0.00%     51.83% # Number of instructions issued per FU type, per thread (Count)
system.cpu.statIssuedInstType_0::SimdMisc       715449      8.12%     59.94% # Number of instructions issued per FU type, per thread (Count)
system.cpu.statIssuedInstType_0::SimdMult            0      0.00%     59.94% # Number of instructions issued per FU type, per thread (Count)
system.cpu.statIssuedInstType_0::SimdMultAcc            0      0.00%     59.94% # Number of instructions issued per FU type, per thread (Count)
system.cpu.statIssuedInstType_0::SimdShift            0      0.00%     59.94% # Number of instructions issued per FU type, per thread (Count)
system.cpu.statIssuedInstType_0::SimdShiftAcc            0      0.00%     59.94% # Number of instructions issued per FU type, per thread (Count)
system.cpu.statIssuedInstType_0::SimdDiv            0      0.00%     59.94% # Number of instructions issued per FU type, per thread (Count)
system.cpu.statIssuedInstType_0::SimdSqrt            0      0.00%     59.94% # Number of instructions issued per FU type, per thread (Count)
system.cpu.statIssuedInstType_0::SimdFloatAdd            0      0.00%     59.94% # Number of instructions issued per FU type, per thread (Count)
system.cpu.statIssuedInstType_0::SimdFloatAlu            0      0.00%     59.94% # Number of instructions issued per FU type, per thread (Count)
system.cpu.statIssuedInstType_0::SimdFloatCmp            0      0.00%     59.94% # Number of instructions issued per FU type, per thread (Count)
system.cpu.statIssuedInstType_0::SimdFloatCvt            0      0.00%     59.94% # Number of instructions issued per FU type, per thread (Count)
system.cpu.statIssuedInstType_0::SimdFloatDiv            0      0.00%     59.94% # Number of instructions issued per FU type, per thread (Count)
system.cpu.statIssuedInstType_0::SimdFloatMisc            0      0.00%     59.94% # Number of instructions issued per FU type, per thread (Count)
system.cpu.statIssuedInstType_0::SimdFloatMult            0      0.00%     59.94% # Number of instructions issued per FU type, per thread (Count)
system.cpu.statIssuedInstType_0::SimdFloatMultAcc            0      0.00%     59.94% # Number of instructions issued per FU type, per thread (Count)
system.cpu.statIssuedInstType_0::SimdFloatSqrt            0      0.00%     59.94% # Number of instructions issued per FU type, per thread (Count)
system.cpu.statIssuedInstType_0::SimdReduceAdd            0      0.00%     59.94% # Number of instructions issued per FU type, per thread (Count)
system.cpu.statIssuedInstType_0::SimdReduceAlu            0      0.00%     59.94% # Number of instructions issued per FU type, per thread (Count)
system.cpu.statIssuedInstType_0::SimdReduceCmp            0      0.00%     59.94% # Number of instructions issued per FU type, per thread (Count)
system.cpu.statIssuedInstType_0::SimdFloatReduceAdd            0      0.00%     59.94% # Number of instructions issued per FU type, per thread (Count)
system.cpu.statIssuedInstType_0::SimdFloatReduceCmp            0      0.00%     59.94% # Number of instructions issued per FU type, per thread (Count)
system.cpu.statIssuedInstType_0::SimdAes            0      0.00%     59.94% # Number of instructions issued per FU type, per thread (Count)
system.cpu.statIssuedInstType_0::SimdAesMix            0      0.00%     59.94% # Number of instructions issued per FU type, per thread (Count)
system.cpu.statIssuedInstType_0::SimdSha1Hash            0      0.00%     59.94% # Number of instructions issued per FU type, per thread (Count)
system.cpu.statIssuedInstType_0::SimdSha1Hash2            0      0.00%     59.94% # Number of instructions issued per FU type, per thread (Count)
system.cpu.statIssuedInstType_0::SimdSha256Hash            0      0.00%     59.94% # Number of instructions issued per FU type, per thread (Count)
system.cpu.statIssuedInstType_0::SimdSha256Hash2            0      0.00%     59.94% # Number of instructions issued per FU type, per thread (Count)
system.cpu.statIssuedInstType_0::SimdShaSigma2            0      0.00%     59.94% # Number of instructions issued per FU type, per thread (Count)
system.cpu.statIssuedInstType_0::SimdShaSigma3            0      0.00%     59.94% # Number of instructions issued per FU type, per thread (Count)
system.cpu.statIssuedInstType_0::SimdPredAlu            0      0.00%     59.94% # Number of instructions issued per FU type, per thread (Count)
system.cpu.statIssuedInstType_0::MemRead      1937798     21.98%     81.93% # Number of instructions issued per FU type, per thread (Count)
system.cpu.statIssuedInstType_0::MemWrite      1592890     18.07%    100.00% # Number of instructions issued per FU type, per thread (Count)
system.cpu.statIssuedInstType_0::FloatMemRead            0      0.00%    100.00% # Number of instructions issued per FU type, per thread (Count)
system.cpu.statIssuedInstType_0::FloatMemWrite            0      0.00%    100.00% # Number of instructions issued per FU type, per thread (Count)
system.cpu.statIssuedInstType_0::IprAccess            0      0.00%    100.00% # Number of instructions issued per FU type, per thread (Count)
system.cpu.statIssuedInstType_0::InstPrefetch            0      0.00%    100.00% # Number of instructions issued per FU type, per thread (Count)
system.cpu.statIssuedInstType_0::total        8814469                       # Number of instructions issued per FU type, per thread (Count)
system.cpu.issueRate                         3.516759                       # Inst issue rate ((Count/Cycle))
system.cpu.fuBusy                              747999                       # FU busy when requested (Count)
system.cpu.fuBusyRate                        0.084860                       # FU busy rate (busy events/executed inst) ((Count/Count))
system.cpu.intInstQueueReads                  5998355                       # Number of integer instruction queue reads (Count)
system.cpu.intInstQueueWrites                 1756564                       # Number of integer instruction queue writes (Count)
system.cpu.intInstQueueWakeupAccesses         1740576                       # Number of integer instruction queue wakeup accesses (Count)
system.cpu.fpInstQueueReads                         0                       # Number of floating instruction queue reads (Count)
system.cpu.fpInstQueueWrites                        0                       # Number of floating instruction queue writes (Count)
system.cpu.fpInstQueueWakeupAccesses                0                       # Number of floating instruction queue wakeup accesses (Count)
system.cpu.vecInstQueueReads                 14851801                       # Number of vector instruction queue reads (Count)
system.cpu.vecInstQueueWrites                 7102989                       # Number of vector instruction queue writes (Count)
system.cpu.vecInstQueueWakeupAccesses         7070724                       # Number of vector instruction queue wakeup accesses (Count)
system.cpu.intAluAccesses                     1782721                       # Number of integer alu accesses (Count)
system.cpu.fpAluAccesses                            0                       # Number of floating point alu accesses (Count)
system.cpu.vecAluAccesses                     7044077                       # Number of vector alu accesses (Count)
system.cpu.numInsts                           8813843                       # Number of executed instructions (Count)
system.cpu.numLoadInsts                       1937620                       # Number of load instructions executed (Count)
system.cpu.numSquashedInsts                       628                       # Number of squashed instructions skipped in execute (Count)
system.cpu.numSwp                                   0                       # Number of swp insts executed (Count)
system.cpu.numNop                                 191                       # Number of nop insts executed (Count)
system.cpu.numRefs                            3530427                       # Number of memory reference insts executed (Count)
system.cpu.numBranches                           5962                       # Number of branches executed (Count)
system.cpu.numStoreInsts                      1592807                       # Number of stores executed (Count)
system.cpu.numRate                           3.516510                       # Inst execution rate ((Count/Cycle))
system.cpu.timesIdled                             317                       # Number of times that the entire CPU went into an idle state and unscheduled itself (Count)
system.cpu.idleCycles                           33327                       # Total number of cycles that the CPU has spent unscheduled due to idling (Cycle)
system.cpu.committedInsts                     6373749                       # Number of Instructions Simulated (Count)
system.cpu.committedOps                       8797880                       # Number of Ops (including micro ops) Simulated (Count)
system.cpu.cpi                               0.393241                       # CPI: Cycles Per Instruction ((Cycle/Count))
system.cpu.totalCpi                          0.393241                       # CPI: Total CPI of All Threads ((Cycle/Count))
system.cpu.ipc                               2.542971                       # IPC: Instructions Per Cycle ((Count/Cycle))
system.cpu.totalIpc                          2.542971                       # IPC: Total IPC of All Threads ((Count/Cycle))
system.cpu.intRegfileReads                    6192205                       # Number of integer regfile reads (Count)
system.cpu.intRegfileWrites                   2441801                       # Number of integer regfile writes (Count)
system.cpu.vecRegfileReads                   14265967                       # number of vector regfile reads (Count)
system.cpu.ccRegfileReads                       12171                       # number of cc regfile reads (Count)
system.cpu.ccRegfileWrites                      12219                       # number of cc regfile writes (Count)
system.cpu.miscRegfileReads                  12678501                       # number of misc regfile reads (Count)
system.cpu.miscRegfileWrites                      144                       # number of misc regfile writes (Count)
system.cpu.MemDepUnit__0.insertedLoads        1937701                       # Number of loads inserted to the mem dependence unit. (Count)
system.cpu.MemDepUnit__0.insertedStores       1594876                       # Number of stores inserted to the mem dependence unit. (Count)
system.cpu.MemDepUnit__0.conflictingLoads        18247                       # Number of conflicting loads. (Count)
system.cpu.MemDepUnit__0.conflictingStores        17001                       # Number of conflicting stores. (Count)
system.cpu.MemDepUnit__1.insertedLoads              0                       # Number of loads inserted to the mem dependence unit. (Count)
system.cpu.MemDepUnit__1.insertedStores             0                       # Number of stores inserted to the mem dependence unit. (Count)
system.cpu.MemDepUnit__1.conflictingLoads            0                       # Number of conflicting loads. (Count)
system.cpu.MemDepUnit__1.conflictingStores            0                       # Number of conflicting stores. (Count)
system.cpu.MemDepUnit__2.insertedLoads              0                       # Number of loads inserted to the mem dependence unit. (Count)
system.cpu.MemDepUnit__2.insertedStores             0                       # Number of stores inserted to the mem dependence unit. (Count)
system.cpu.MemDepUnit__2.conflictingLoads            0                       # Number of conflicting loads. (Count)
system.cpu.MemDepUnit__2.conflictingStores            0                       # Number of conflicting stores. (Count)
system.cpu.MemDepUnit__3.insertedLoads              0                       # Number of loads inserted to the mem dependence unit. (Count)
system.cpu.MemDepUnit__3.insertedStores             0                       # Number of stores inserted to the mem dependence unit. (Count)
system.cpu.MemDepUnit__3.conflictingLoads            0                       # Number of conflicting loads. (Count)
system.cpu.MemDepUnit__3.conflictingStores            0                       # Number of conflicting stores. (Count)
system.cpu.branchPred.lookups                    7806                       # Number of BP lookups (Count)
system.cpu.branchPred.condPredicted              6369                       # Number of conditional branches predicted (Count)
system.cpu.branchPred.condIncorrect               451                       # Number of conditional branches incorrect (Count)
system.cpu.branchPred.BTBLookups                 4953                       # Number of BTB lookups (Count)
system.cpu.branchPred.BTBUpdates                  199                       # Number of BTB updates (Count)
system.cpu.branchPred.BTBHits                    4668                       # Number of BTB hits (Count)
system.cpu.branchPred.BTBHitRatio            0.942459                       # BTB Hit Ratio (Ratio)
system.cpu.branchPred.RASUsed                     365                       # Number of times the RAS was used to get a target. (Count)
system.cpu.branchPred.RASIncorrect                 11                       # Number of incorrect RAS predictions. (Count)
system.cpu.branchPred.indirectLookups             592                       # Number of indirect predictor lookups. (Count)
system.cpu.branchPred.indirectHits                 16                       # Number of indirect target hits. (Count)
system.cpu.branchPred.indirectMisses              576                       # Number of indirect misses. (Count)
system.cpu.branchPred.indirectMispredicted           82                       # Number of mispredicted indirect branches. (Count)
system.cpu.commit.commitSquashedInsts           25926                       # The number of squashed insts skipped by commit (Count)
system.cpu.commit.commitNonSpecStalls             145                       # The number of times commit has been forced to stall to communicate backwards (Count)
system.cpu.commit.branchMispredicts               682                       # The number of times a branch was mispredicted (Count)
system.cpu.commit.numCommittedDist::samples      2469029                       # Number of insts commited each cycle (Count)
system.cpu.commit.numCommittedDist::mean     3.563347                       # Number of insts commited each cycle (Count)
system.cpu.commit.numCommittedDist::stdev     3.336701                       # Number of insts commited each cycle (Count)
system.cpu.commit.numCommittedDist::underflows            0      0.00%      0.00% # Number of insts commited each cycle (Count)
system.cpu.commit.numCommittedDist::0          827995     33.54%     33.54% # Number of insts commited each cycle (Count)
system.cpu.commit.numCommittedDist::1          199026      8.06%     41.60% # Number of insts commited each cycle (Count)
system.cpu.commit.numCommittedDist::2          168394      6.82%     48.42% # Number of insts commited each cycle (Count)
system.cpu.commit.numCommittedDist::3          130034      5.27%     53.68% # Number of insts commited each cycle (Count)
system.cpu.commit.numCommittedDist::4          141656      5.74%     59.42% # Number of insts commited each cycle (Count)
system.cpu.commit.numCommittedDist::5          147197      5.96%     65.38% # Number of insts commited each cycle (Count)
system.cpu.commit.numCommittedDist::6           86311      3.50%     68.88% # Number of insts commited each cycle (Count)
system.cpu.commit.numCommittedDist::7           95713      3.88%     72.75% # Number of insts commited each cycle (Count)
system.cpu.commit.numCommittedDist::8          672703     27.25%    100.00% # Number of insts commited each cycle (Count)
system.cpu.commit.numCommittedDist::overflows            0      0.00%    100.00% # Number of insts commited each cycle (Count)
system.cpu.commit.numCommittedDist::min_value            0                       # Number of insts commited each cycle (Count)
system.cpu.commit.numCommittedDist::max_value            8                       # Number of insts commited each cycle (Count)
system.cpu.commit.numCommittedDist::total      2469029                       # Number of insts commited each cycle (Count)
system.cpu.commit.instsCommitted              6373875                       # Number of instructions committed (Count)
system.cpu.commit.opsCommitted                8798006                       # Number of ops (including micro ops) committed (Count)
system.cpu.commit.memRefs                     3521863                       # Number of memory references committed (Count)
system.cpu.commit.loads                       1929456                       # Number of loads committed (Count)
system.cpu.commit.amos                             72                       # Number of atomic instructions committed (Count)
system.cpu.commit.membars                          72                       # Number of memory barriers committed (Count)
system.cpu.commit.branches                       5242                       # Number of branches committed (Count)
system.cpu.commit.vectorInstructions          7062817                       # Number of committed Vector instructions. (Count)
system.cpu.commit.floating                          0                       # Number of committed floating point instructions. (Count)
system.cpu.commit.integer                     5831203                       # Number of committed integer instructions. (Count)
system.cpu.commit.functionCalls                   186                       # Number of function calls committed. (Count)
system.cpu.commit.committedInstType_0::No_OpClass       734430      8.35%      8.35% # Class of committed instruction (Count)
system.cpu.commit.committedInstType_0::IntAlu      1598297     18.17%     26.51% # Class of committed instruction (Count)
system.cpu.commit.committedInstType_0::IntMult           28      0.00%     26.51% # Class of committed instruction (Count)
system.cpu.commit.committedInstType_0::IntDiv            9      0.00%     26.51% # Class of committed instruction (Count)
system.cpu.commit.committedInstType_0::FloatAdd            0      0.00%     26.51% # Class of committed instruction (Count)
system.cpu.commit.committedInstType_0::FloatCmp            0      0.00%     26.51% # Class of committed instruction (Count)
system.cpu.commit.committedInstType_0::FloatCvt            0      0.00%     26.51% # Class of committed instruction (Count)
system.cpu.commit.committedInstType_0::FloatMult            0      0.00%     26.51% # Class of committed instruction (Count)
system.cpu.commit.committedInstType_0::FloatMultAcc            0      0.00%     26.51% # Class of committed instruction (Count)
system.cpu.commit.committedInstType_0::FloatDiv            0      0.00%     26.51% # Class of committed instruction (Count)
system.cpu.commit.committedInstType_0::FloatMisc            0      0.00%     26.51% # Class of committed instruction (Count)
system.cpu.commit.committedInstType_0::FloatSqrt            0      0.00%     26.51% # Class of committed instruction (Count)
system.cpu.commit.committedInstType_0::SimdAdd       740096      8.41%     34.93% # Class of committed instruction (Count)
system.cpu.commit.committedInstType_0::SimdAddAcc            0      0.00%     34.93% # Class of committed instruction (Count)
system.cpu.commit.committedInstType_0::SimdAlu      1488264     16.92%     51.84% # Class of committed instruction (Count)
system.cpu.commit.committedInstType_0::SimdCmp            0      0.00%     51.84% # Class of committed instruction (Count)
system.cpu.commit.committedInstType_0::SimdCvt            0      0.00%     51.84% # Class of committed instruction (Count)
system.cpu.commit.committedInstType_0::SimdMisc       715019      8.13%     59.97% # Class of committed instruction (Count)
system.cpu.commit.committedInstType_0::SimdMult            0      0.00%     59.97% # Class of committed instruction (Count)
system.cpu.commit.committedInstType_0::SimdMultAcc            0      0.00%     59.97% # Class of committed instruction (Count)
system.cpu.commit.committedInstType_0::SimdShift            0      0.00%     59.97% # Class of committed instruction (Count)
system.cpu.commit.committedInstType_0::SimdShiftAcc            0      0.00%     59.97% # Class of committed instruction (Count)
system.cpu.commit.committedInstType_0::SimdDiv            0      0.00%     59.97% # Class of committed instruction (Count)
system.cpu.commit.committedInstType_0::SimdSqrt            0      0.00%     59.97% # Class of committed instruction (Count)
system.cpu.commit.committedInstType_0::SimdFloatAdd            0      0.00%     59.97% # Class of committed instruction (Count)
system.cpu.commit.committedInstType_0::SimdFloatAlu            0      0.00%     59.97% # Class of committed instruction (Count)
system.cpu.commit.committedInstType_0::SimdFloatCmp            0      0.00%     59.97% # Class of committed instruction (Count)
system.cpu.commit.committedInstType_0::SimdFloatCvt            0      0.00%     59.97% # Class of committed instruction (Count)
system.cpu.commit.committedInstType_0::SimdFloatDiv            0      0.00%     59.97% # Class of committed instruction (Count)
system.cpu.commit.committedInstType_0::SimdFloatMisc            0      0.00%     59.97% # Class of committed instruction (Count)
system.cpu.commit.committedInstType_0::SimdFloatMult            0      0.00%     59.97% # Class of committed instruction (Count)
system.cpu.commit.committedInstType_0::SimdFloatMultAcc            0      0.00%     59.97% # Class of committed instruction (Count)
system.cpu.commit.committedInstType_0::SimdFloatSqrt            0      0.00%     59.97% # Class of committed instruction (Count)
system.cpu.commit.committedInstType_0::SimdReduceAdd            0      0.00%     59.97% # Class of committed instruction (Count)
system.cpu.commit.committedInstType_0::SimdReduceAlu            0      0.00%     59.97% # Class of committed instruction (Count)
system.cpu.commit.committedInstType_0::SimdReduceCmp            0      0.00%     59.97% # Class of committed instruction (Count)
system.cpu.commit.committedInstType_0::SimdFloatReduceAdd            0      0.00%     59.97% # Class of committed instruction (Count)
system.cpu.commit.committedInstType_0::SimdFloatReduceCmp            0      0.00%     59.97% # Class of committed instruction (Count)
system.cpu.commit.committedInstType_0::SimdAes            0      0.00%     59.97% # Class of committed instruction (Count)
system.cpu.commit.committedInstType_0::SimdAesMix            0      0.00%     59.97% # Class of committed instruction (Count)
system.cpu.commit.committedInstType_0::SimdSha1Hash            0      0.00%     59.97% # Class of committed instruction (Count)
system.cpu.commit.committedInstType_0::SimdSha1Hash2            0      0.00%     59.97% # Class of committed instruction (Count)
system.cpu.commit.committedInstType_0::SimdSha256Hash            0      0.00%     59.97% # Class of committed instruction (Count)
system.cpu.commit.committedInstType_0::SimdSha256Hash2            0      0.00%     59.97% # Class of committed instruction (Count)
system.cpu.commit.committedInstType_0::SimdShaSigma2            0      0.00%     59.97% # Class of committed instruction (Count)
system.cpu.commit.committedInstType_0::SimdShaSigma3            0      0.00%     59.97% # Class of committed instruction (Count)
system.cpu.commit.committedInstType_0::SimdPredAlu            0      0.00%     59.97% # Class of committed instruction (Count)
system.cpu.commit.committedInstType_0::MemRead      1929456     21.93%     81.90% # Class of committed instruction (Count)
system.cpu.commit.committedInstType_0::MemWrite      1592407     18.10%    100.00% # Class of committed instruction (Count)
system.cpu.commit.committedInstType_0::FloatMemRead            0      0.00%    100.00% # Class of committed instruction (Count)
system.cpu.commit.committedInstType_0::FloatMemWrite            0      0.00%    100.00% # Class of committed instruction (Count)
system.cpu.commit.committedInstType_0::IprAccess            0      0.00%    100.00% # Class of committed instruction (Count)
system.cpu.commit.committedInstType_0::InstPrefetch            0      0.00%    100.00% # Class of committed instruction (Count)
system.cpu.commit.committedInstType_0::total      8798006                       # Class of committed instruction (Count)
system.cpu.commit.commitEligibleSamples        672703                       # number cycles where commit BW limit reached (Cycle)
system.cpu.dcache.demandHits::cpu.data        3450497                       # number of demand (read+write) hits (Count)
system.cpu.dcache.demandHits::total           3450497                       # number of demand (read+write) hits (Count)
system.cpu.dcache.overallHits::cpu.data       3450497                       # number of overall hits (Count)
system.cpu.dcache.overallHits::total          3450497                       # number of overall hits (Count)
system.cpu.dcache.demandMisses::cpu.data        14943                       # number of demand (read+write) misses (Count)
system.cpu.dcache.demandMisses::total           14943                       # number of demand (read+write) misses (Count)
system.cpu.dcache.overallMisses::cpu.data        14943                       # number of overall misses (Count)
system.cpu.dcache.overallMisses::total          14943                       # number of overall misses (Count)
system.cpu.dcache.demandMissLatency::cpu.data   1175393494                       # number of demand (read+write) miss ticks (Tick)
system.cpu.dcache.demandMissLatency::total   1175393494                       # number of demand (read+write) miss ticks (Tick)
system.cpu.dcache.overallMissLatency::cpu.data   1175393494                       # number of overall miss ticks (Tick)
system.cpu.dcache.overallMissLatency::total   1175393494                       # number of overall miss ticks (Tick)
system.cpu.dcache.demandAccesses::cpu.data      3465440                       # number of demand (read+write) accesses (Count)
system.cpu.dcache.demandAccesses::total       3465440                       # number of demand (read+write) accesses (Count)
system.cpu.dcache.overallAccesses::cpu.data      3465440                       # number of overall (read+write) accesses (Count)
system.cpu.dcache.overallAccesses::total      3465440                       # number of overall (read+write) accesses (Count)
system.cpu.dcache.demandMissRate::cpu.data     0.004312                       # miss rate for demand accesses (Ratio)
system.cpu.dcache.demandMissRate::total      0.004312                       # miss rate for demand accesses (Ratio)
system.cpu.dcache.overallMissRate::cpu.data     0.004312                       # miss rate for overall accesses (Ratio)
system.cpu.dcache.overallMissRate::total     0.004312                       # miss rate for overall accesses (Ratio)
system.cpu.dcache.demandAvgMissLatency::cpu.data 78658.468447                       # average overall miss latency in ticks ((Tick/Count))
system.cpu.dcache.demandAvgMissLatency::total 78658.468447                       # average overall miss latency in ticks ((Tick/Count))
system.cpu.dcache.overallAvgMissLatency::cpu.data 78658.468447                       # average overall miss latency ((Tick/Count))
system.cpu.dcache.overallAvgMissLatency::total 78658.468447                       # average overall miss latency ((Tick/Count))
system.cpu.dcache.blockedCycles::no_mshrs         2495                       # number of cycles access was blocked (Cycle)
system.cpu.dcache.blockedCycles::no_targets          111                       # number of cycles access was blocked (Cycle)
system.cpu.dcache.blockedCauses::no_mshrs           70                       # number of times access was blocked (Count)
system.cpu.dcache.blockedCauses::no_targets            1                       # number of times access was blocked (Count)
system.cpu.dcache.avgBlocked::no_mshrs      35.642857                       # average number of cycles each access was blocked ((Cycle/Count))
system.cpu.dcache.avgBlocked::no_targets          111                       # average number of cycles each access was blocked ((Cycle/Count))
system.cpu.dcache.writebacks::writebacks         1564                       # number of writebacks (Count)
system.cpu.dcache.writebacks::total              1564                       # number of writebacks (Count)
system.cpu.dcache.demandMshrHits::cpu.data         6718                       # number of demand (read+write) MSHR hits (Count)
system.cpu.dcache.demandMshrHits::total          6718                       # number of demand (read+write) MSHR hits (Count)
system.cpu.dcache.overallMshrHits::cpu.data         6718                       # number of overall MSHR hits (Count)
system.cpu.dcache.overallMshrHits::total         6718                       # number of overall MSHR hits (Count)
system.cpu.dcache.demandMshrMisses::cpu.data         8225                       # number of demand (read+write) MSHR misses (Count)
system.cpu.dcache.demandMshrMisses::total         8225                       # number of demand (read+write) MSHR misses (Count)
system.cpu.dcache.overallMshrMisses::cpu.data         8225                       # number of overall MSHR misses (Count)
system.cpu.dcache.overallMshrMisses::total         8225                       # number of overall MSHR misses (Count)
system.cpu.dcache.demandMshrMissLatency::cpu.data    650699498                       # number of demand (read+write) MSHR miss ticks (Tick)
system.cpu.dcache.demandMshrMissLatency::total    650699498                       # number of demand (read+write) MSHR miss ticks (Tick)
system.cpu.dcache.overallMshrMissLatency::cpu.data    650699498                       # number of overall MSHR miss ticks (Tick)
system.cpu.dcache.overallMshrMissLatency::total    650699498                       # number of overall MSHR miss ticks (Tick)
system.cpu.dcache.demandMshrMissRate::cpu.data     0.002373                       # mshr miss ratio for demand accesses (Ratio)
system.cpu.dcache.demandMshrMissRate::total     0.002373                       # mshr miss ratio for demand accesses (Ratio)
system.cpu.dcache.overallMshrMissRate::cpu.data     0.002373                       # mshr miss ratio for overall accesses (Ratio)
system.cpu.dcache.overallMshrMissRate::total     0.002373                       # mshr miss ratio for overall accesses (Ratio)
system.cpu.dcache.demandAvgMshrMissLatency::cpu.data 79112.400973                       # average overall mshr miss latency ((Tick/Count))
system.cpu.dcache.demandAvgMshrMissLatency::total 79112.400973                       # average overall mshr miss latency ((Tick/Count))
system.cpu.dcache.overallAvgMshrMissLatency::cpu.data 79112.400973                       # average overall mshr miss latency ((Tick/Count))
system.cpu.dcache.overallAvgMshrMissLatency::total 79112.400973                       # average overall mshr miss latency ((Tick/Count))
system.cpu.dcache.replacements                   8227                       # number of replacements (Count)
system.cpu.dcache.ReadReq.hits::cpu.data      1858195                       # number of ReadReq hits (Count)
system.cpu.dcache.ReadReq.hits::total         1858195                       # number of ReadReq hits (Count)
system.cpu.dcache.ReadReq.misses::cpu.data        14910                       # number of ReadReq misses (Count)
system.cpu.dcache.ReadReq.misses::total         14910                       # number of ReadReq misses (Count)
system.cpu.dcache.ReadReq.missLatency::cpu.data   1174279000                       # number of ReadReq miss ticks (Tick)
system.cpu.dcache.ReadReq.missLatency::total   1174279000                       # number of ReadReq miss ticks (Tick)
system.cpu.dcache.ReadReq.accesses::cpu.data      1873105                       # number of ReadReq accesses(hits+misses) (Count)
system.cpu.dcache.ReadReq.accesses::total      1873105                       # number of ReadReq accesses(hits+misses) (Count)
system.cpu.dcache.ReadReq.missRate::cpu.data     0.007960                       # miss rate for ReadReq accesses (Ratio)
system.cpu.dcache.ReadReq.missRate::total     0.007960                       # miss rate for ReadReq accesses (Ratio)
system.cpu.dcache.ReadReq.avgMissLatency::cpu.data 78757.813548                       # average ReadReq miss latency ((Tick/Count))
system.cpu.dcache.ReadReq.avgMissLatency::total 78757.813548                       # average ReadReq miss latency ((Tick/Count))
system.cpu.dcache.ReadReq.mshrHits::cpu.data         6703                       # number of ReadReq MSHR hits (Count)
system.cpu.dcache.ReadReq.mshrHits::total         6703                       # number of ReadReq MSHR hits (Count)
system.cpu.dcache.ReadReq.mshrMisses::cpu.data         8207                       # number of ReadReq MSHR misses (Count)
system.cpu.dcache.ReadReq.mshrMisses::total         8207                       # number of ReadReq MSHR misses (Count)
system.cpu.dcache.ReadReq.mshrMissLatency::cpu.data    650003500                       # number of ReadReq MSHR miss ticks (Tick)
system.cpu.dcache.ReadReq.mshrMissLatency::total    650003500                       # number of ReadReq MSHR miss ticks (Tick)
system.cpu.dcache.ReadReq.mshrMissRate::cpu.data     0.004381                       # mshr miss rate for ReadReq accesses (Ratio)
system.cpu.dcache.ReadReq.mshrMissRate::total     0.004381                       # mshr miss rate for ReadReq accesses (Ratio)
system.cpu.dcache.ReadReq.avgMshrMissLatency::cpu.data 79201.108810                       # average ReadReq mshr miss latency ((Tick/Count))
system.cpu.dcache.ReadReq.avgMshrMissLatency::total 79201.108810                       # average ReadReq mshr miss latency ((Tick/Count))
system.cpu.dcache.SwapReq.hits::cpu.data           70                       # number of SwapReq hits (Count)
system.cpu.dcache.SwapReq.hits::total              70                       # number of SwapReq hits (Count)
system.cpu.dcache.SwapReq.misses::cpu.data            2                       # number of SwapReq misses (Count)
system.cpu.dcache.SwapReq.misses::total             2                       # number of SwapReq misses (Count)
system.cpu.dcache.SwapReq.missLatency::cpu.data       172000                       # number of SwapReq miss ticks (Tick)
system.cpu.dcache.SwapReq.missLatency::total       172000                       # number of SwapReq miss ticks (Tick)
system.cpu.dcache.SwapReq.accesses::cpu.data           72                       # number of SwapReq accesses(hits+misses) (Count)
system.cpu.dcache.SwapReq.accesses::total           72                       # number of SwapReq accesses(hits+misses) (Count)
system.cpu.dcache.SwapReq.missRate::cpu.data     0.027778                       # miss rate for SwapReq accesses (Ratio)
system.cpu.dcache.SwapReq.missRate::total     0.027778                       # miss rate for SwapReq accesses (Ratio)
system.cpu.dcache.SwapReq.avgMissLatency::cpu.data        86000                       # average SwapReq miss latency ((Tick/Count))
system.cpu.dcache.SwapReq.avgMissLatency::total        86000                       # average SwapReq miss latency ((Tick/Count))
system.cpu.dcache.SwapReq.mshrMisses::cpu.data            2                       # number of SwapReq MSHR misses (Count)
system.cpu.dcache.SwapReq.mshrMisses::total            2                       # number of SwapReq MSHR misses (Count)
system.cpu.dcache.SwapReq.mshrMissLatency::cpu.data       170000                       # number of SwapReq MSHR miss ticks (Tick)
system.cpu.dcache.SwapReq.mshrMissLatency::total       170000                       # number of SwapReq MSHR miss ticks (Tick)
system.cpu.dcache.SwapReq.mshrMissRate::cpu.data     0.027778                       # mshr miss rate for SwapReq accesses (Ratio)
system.cpu.dcache.SwapReq.mshrMissRate::total     0.027778                       # mshr miss rate for SwapReq accesses (Ratio)
system.cpu.dcache.SwapReq.avgMshrMissLatency::cpu.data        85000                       # average SwapReq mshr miss latency ((Tick/Count))
system.cpu.dcache.SwapReq.avgMshrMissLatency::total        85000                       # average SwapReq mshr miss latency ((Tick/Count))
system.cpu.dcache.WriteReq.hits::cpu.data      1592302                       # number of WriteReq hits (Count)
system.cpu.dcache.WriteReq.hits::total        1592302                       # number of WriteReq hits (Count)
system.cpu.dcache.WriteReq.misses::cpu.data           33                       # number of WriteReq misses (Count)
system.cpu.dcache.WriteReq.misses::total           33                       # number of WriteReq misses (Count)
system.cpu.dcache.WriteReq.missLatency::cpu.data      1114494                       # number of WriteReq miss ticks (Tick)
system.cpu.dcache.WriteReq.missLatency::total      1114494                       # number of WriteReq miss ticks (Tick)
system.cpu.dcache.WriteReq.accesses::cpu.data      1592335                       # number of WriteReq accesses(hits+misses) (Count)
system.cpu.dcache.WriteReq.accesses::total      1592335                       # number of WriteReq accesses(hits+misses) (Count)
system.cpu.dcache.WriteReq.missRate::cpu.data     0.000021                       # miss rate for WriteReq accesses (Ratio)
system.cpu.dcache.WriteReq.missRate::total     0.000021                       # miss rate for WriteReq accesses (Ratio)
system.cpu.dcache.WriteReq.avgMissLatency::cpu.data 33772.545455                       # average WriteReq miss latency ((Tick/Count))
system.cpu.dcache.WriteReq.avgMissLatency::total 33772.545455                       # average WriteReq miss latency ((Tick/Count))
system.cpu.dcache.WriteReq.mshrHits::cpu.data           15                       # number of WriteReq MSHR hits (Count)
system.cpu.dcache.WriteReq.mshrHits::total           15                       # number of WriteReq MSHR hits (Count)
system.cpu.dcache.WriteReq.mshrMisses::cpu.data           18                       # number of WriteReq MSHR misses (Count)
system.cpu.dcache.WriteReq.mshrMisses::total           18                       # number of WriteReq MSHR misses (Count)
system.cpu.dcache.WriteReq.mshrMissLatency::cpu.data       695998                       # number of WriteReq MSHR miss ticks (Tick)
system.cpu.dcache.WriteReq.mshrMissLatency::total       695998                       # number of WriteReq MSHR miss ticks (Tick)
system.cpu.dcache.WriteReq.mshrMissRate::cpu.data     0.000011                       # mshr miss rate for WriteReq accesses (Ratio)
system.cpu.dcache.WriteReq.mshrMissRate::total     0.000011                       # mshr miss rate for WriteReq accesses (Ratio)
system.cpu.dcache.WriteReq.avgMshrMissLatency::cpu.data 38666.555556                       # average WriteReq mshr miss latency ((Tick/Count))
system.cpu.dcache.WriteReq.avgMshrMissLatency::total 38666.555556                       # average WriteReq mshr miss latency ((Tick/Count))
system.cpu.dcache.power_state.pwrStateResidencyTicks::UNDEFINED   2253373000                       # Cumulative time (in ticks) in various power states (Tick)
system.cpu.dcache.tags.tagsInUse                 1024                       # Average ticks per tags in use ((Tick/Count))
system.cpu.dcache.tags.totalRefs              3513162                       # Total number of references to valid blocks. (Count)
system.cpu.dcache.tags.sampledRefs               9251                       # Sample count of references to valid blocks. (Count)
system.cpu.dcache.tags.avgRefs             379.760242                       # Average number of references to valid blocks. ((Count/Count))
system.cpu.dcache.tags.warmupTick                   0                       # The tick when the warmup percentage was hit. (Tick)
system.cpu.dcache.tags.occupancies::cpu.data         1024                       # Average occupied blocks per tick, per requestor ((Count/Tick))
system.cpu.dcache.tags.avgOccs::cpu.data            1                       # Average percentage of cache occupancy ((Ratio/Tick))
system.cpu.dcache.tags.avgOccs::total               1                       # Average percentage of cache occupancy ((Ratio/Tick))
system.cpu.dcache.tags.occupanciesTaskId::1024         1024                       # Occupied blocks per task id (Count)
system.cpu.dcache.tags.ageTaskId_1024::0           96                       # Occupied blocks per task id, per block age (Count)
system.cpu.dcache.tags.ageTaskId_1024::1          556                       # Occupied blocks per task id, per block age (Count)
system.cpu.dcache.tags.ageTaskId_1024::2          316                       # Occupied blocks per task id, per block age (Count)
system.cpu.dcache.tags.ageTaskId_1024::3           56                       # Occupied blocks per task id, per block age (Count)
system.cpu.dcache.tags.ratioOccsTaskId::1024            1                       # Ratio of occupied blocks and all blocks, per task id (Ratio)
system.cpu.dcache.tags.tagAccesses           13870275                       # Number of tag accesses (Count)
system.cpu.dcache.tags.dataAccesses          13870275                       # Number of data accesses (Count)
system.cpu.dcache.tags.power_state.pwrStateResidencyTicks::UNDEFINED   2253373000                       # Cumulative time (in ticks) in various power states (Tick)
system.cpu.decode.idleCycles                   360568                       # Number of cycles decode is idle (Cycle)
system.cpu.decode.blockedCycles                858573                       # Number of cycles decode is blocked (Cycle)
system.cpu.decode.runCycles                   1168718                       # Number of cycles decode is running (Cycle)
system.cpu.decode.unblockCycles                 84245                       # Number of cycles decode is unblocking (Cycle)
system.cpu.decode.squashCycles                    987                       # Number of cycles decode is squashing (Cycle)
system.cpu.decode.branchResolved                 4570                       # Number of times decode resolved a branch (Count)
system.cpu.decode.branchMispred                    75                       # Number of times decode detected a branch misprediction (Count)
system.cpu.decode.decodedInsts                8835034                       # Number of instructions handled by decode (Count)
system.cpu.decode.squashedInsts                   241                       # Number of squashed instructions handled by decode (Count)
system.cpu.fetch.icacheStallCycles             415470                       # Number of cycles fetch is stalled on an Icache miss (Cycle)
system.cpu.fetch.insts                        6414060                       # Number of instructions fetch has processed (Count)
system.cpu.fetch.branches                        7806                       # Number of branches that fetch encountered (Count)
system.cpu.fetch.predictedBranches               5049                       # Number of branches that fetch has predicted taken (Count)
system.cpu.fetch.cycles                       2054223                       # Number of cycles fetch has run and was not squashing or blocked (Cycle)
system.cpu.fetch.squashCycles                    2116                       # Number of cycles fetch has spent squashing (Cycle)
system.cpu.fetch.miscStallCycles                  309                       # Number of cycles fetch has spent waiting on interrupts, or bad addresses, or out of MSHRs (Cycle)
system.cpu.fetch.pendingTrapStallCycles          2031                       # Number of stall cycles due to pending traps (Cycle)
system.cpu.fetch.cacheLines                    406834                       # Number of cache lines fetched (Count)
system.cpu.fetch.icacheSquashes                   213                       # Number of outstanding Icache misses that were squashed (Count)
system.cpu.fetch.nisnDist::samples            2473091                       # Number of instructions fetched each cycle (Total) (Count)
system.cpu.fetch.nisnDist::mean              3.577434                       # Number of instructions fetched each cycle (Total) (Count)
system.cpu.fetch.nisnDist::stdev             3.769532                       # Number of instructions fetched each cycle (Total) (Count)
system.cpu.fetch.nisnDist::underflows               0      0.00%      0.00% # Number of instructions fetched each cycle (Total) (Count)
system.cpu.fetch.nisnDist::0                  1173160     47.44%     47.44% # Number of instructions fetched each cycle (Total) (Count)
system.cpu.fetch.nisnDist::1                    71570      2.89%     50.33% # Number of instructions fetched each cycle (Total) (Count)
system.cpu.fetch.nisnDist::2                    72877      2.95%     53.28% # Number of instructions fetched each cycle (Total) (Count)
system.cpu.fetch.nisnDist::3                    47583      1.92%     55.20% # Number of instructions fetched each cycle (Total) (Count)
system.cpu.fetch.nisnDist::4                    32187      1.30%     56.50% # Number of instructions fetched each cycle (Total) (Count)
system.cpu.fetch.nisnDist::5                    43198      1.75%     58.25% # Number of instructions fetched each cycle (Total) (Count)
system.cpu.fetch.nisnDist::6                    44376      1.79%     60.04% # Number of instructions fetched each cycle (Total) (Count)
system.cpu.fetch.nisnDist::7                    28867      1.17%     61.21% # Number of instructions fetched each cycle (Total) (Count)
system.cpu.fetch.nisnDist::8                   959273     38.79%    100.00% # Number of instructions fetched each cycle (Total) (Count)
system.cpu.fetch.nisnDist::overflows                0      0.00%    100.00% # Number of instructions fetched each cycle (Total) (Count)
system.cpu.fetch.nisnDist::min_value                0                       # Number of instructions fetched each cycle (Total) (Count)
system.cpu.fetch.nisnDist::max_value                8                       # Number of instructions fetched each cycle (Total) (Count)
system.cpu.fetch.nisnDist::total              2473091                       # Number of instructions fetched each cycle (Total) (Count)
system.cpu.fetch.branchRate                  0.003114                       # Number of branch fetches per cycle (Ratio)
system.cpu.fetch.rate                        2.559054                       # Number of inst fetches per cycle ((Count/Cycle))
system.cpu.icache.demandHits::cpu.inst         406415                       # number of demand (read+write) hits (Count)
system.cpu.icache.demandHits::total            406415                       # number of demand (read+write) hits (Count)
system.cpu.icache.overallHits::cpu.inst        406415                       # number of overall hits (Count)
system.cpu.icache.overallHits::total           406415                       # number of overall hits (Count)
system.cpu.icache.demandMisses::cpu.inst          419                       # number of demand (read+write) misses (Count)
system.cpu.icache.demandMisses::total             419                       # number of demand (read+write) misses (Count)
system.cpu.icache.overallMisses::cpu.inst          419                       # number of overall misses (Count)
system.cpu.icache.overallMisses::total            419                       # number of overall misses (Count)
system.cpu.icache.demandMissLatency::cpu.inst     29914000                       # number of demand (read+write) miss ticks (Tick)
system.cpu.icache.demandMissLatency::total     29914000                       # number of demand (read+write) miss ticks (Tick)
system.cpu.icache.overallMissLatency::cpu.inst     29914000                       # number of overall miss ticks (Tick)
system.cpu.icache.overallMissLatency::total     29914000                       # number of overall miss ticks (Tick)
system.cpu.icache.demandAccesses::cpu.inst       406834                       # number of demand (read+write) accesses (Count)
system.cpu.icache.demandAccesses::total        406834                       # number of demand (read+write) accesses (Count)
system.cpu.icache.overallAccesses::cpu.inst       406834                       # number of overall (read+write) accesses (Count)
system.cpu.icache.overallAccesses::total       406834                       # number of overall (read+write) accesses (Count)
system.cpu.icache.demandMissRate::cpu.inst     0.001030                       # miss rate for demand accesses (Ratio)
system.cpu.icache.demandMissRate::total      0.001030                       # miss rate for demand accesses (Ratio)
system.cpu.icache.overallMissRate::cpu.inst     0.001030                       # miss rate for overall accesses (Ratio)
system.cpu.icache.overallMissRate::total     0.001030                       # miss rate for overall accesses (Ratio)
system.cpu.icache.demandAvgMissLatency::cpu.inst 71393.794749                       # average overall miss latency in ticks ((Tick/Count))
system.cpu.icache.demandAvgMissLatency::total 71393.794749                       # average overall miss latency in ticks ((Tick/Count))
system.cpu.icache.overallAvgMissLatency::cpu.inst 71393.794749                       # average overall miss latency ((Tick/Count))
system.cpu.icache.overallAvgMissLatency::total 71393.794749                       # average overall miss latency ((Tick/Count))
system.cpu.icache.blockedCycles::no_mshrs          123                       # number of cycles access was blocked (Cycle)
system.cpu.icache.blockedCycles::no_targets            0                       # number of cycles access was blocked (Cycle)
system.cpu.icache.blockedCauses::no_mshrs            1                       # number of times access was blocked (Count)
system.cpu.icache.blockedCauses::no_targets            0                       # number of times access was blocked (Count)
system.cpu.icache.avgBlocked::no_mshrs            123                       # average number of cycles each access was blocked ((Cycle/Count))
system.cpu.icache.avgBlocked::no_targets          nan                       # average number of cycles each access was blocked ((Cycle/Count))
system.cpu.icache.writebacks::writebacks          360                       # number of writebacks (Count)
system.cpu.icache.writebacks::total               360                       # number of writebacks (Count)
system.cpu.icache.demandMshrHits::cpu.inst           59                       # number of demand (read+write) MSHR hits (Count)
system.cpu.icache.demandMshrHits::total            59                       # number of demand (read+write) MSHR hits (Count)
system.cpu.icache.overallMshrHits::cpu.inst           59                       # number of overall MSHR hits (Count)
system.cpu.icache.overallMshrHits::total           59                       # number of overall MSHR hits (Count)
system.cpu.icache.demandMshrMisses::cpu.inst          360                       # number of demand (read+write) MSHR misses (Count)
system.cpu.icache.demandMshrMisses::total          360                       # number of demand (read+write) MSHR misses (Count)
system.cpu.icache.overallMshrMisses::cpu.inst          360                       # number of overall MSHR misses (Count)
system.cpu.icache.overallMshrMisses::total          360                       # number of overall MSHR misses (Count)
system.cpu.icache.demandMshrMissLatency::cpu.inst     25623000                       # number of demand (read+write) MSHR miss ticks (Tick)
system.cpu.icache.demandMshrMissLatency::total     25623000                       # number of demand (read+write) MSHR miss ticks (Tick)
system.cpu.icache.overallMshrMissLatency::cpu.inst     25623000                       # number of overall MSHR miss ticks (Tick)
system.cpu.icache.overallMshrMissLatency::total     25623000                       # number of overall MSHR miss ticks (Tick)
system.cpu.icache.demandMshrMissRate::cpu.inst     0.000885                       # mshr miss ratio for demand accesses (Ratio)
system.cpu.icache.demandMshrMissRate::total     0.000885                       # mshr miss ratio for demand accesses (Ratio)
system.cpu.icache.overallMshrMissRate::cpu.inst     0.000885                       # mshr miss ratio for overall accesses (Ratio)
system.cpu.icache.overallMshrMissRate::total     0.000885                       # mshr miss ratio for overall accesses (Ratio)
system.cpu.icache.demandAvgMshrMissLatency::cpu.inst        71175                       # average overall mshr miss latency ((Tick/Count))
system.cpu.icache.demandAvgMshrMissLatency::total        71175                       # average overall mshr miss latency ((Tick/Count))
system.cpu.icache.overallAvgMshrMissLatency::cpu.inst        71175                       # average overall mshr miss latency ((Tick/Count))
system.cpu.icache.overallAvgMshrMissLatency::total        71175                       # average overall mshr miss latency ((Tick/Count))
system.cpu.icache.replacements                    360                       # number of replacements (Count)
system.cpu.icache.ReadReq.hits::cpu.inst       406415                       # number of ReadReq hits (Count)
system.cpu.icache.ReadReq.hits::total          406415                       # number of ReadReq hits (Count)
system.cpu.icache.ReadReq.misses::cpu.inst          419                       # number of ReadReq misses (Count)
system.cpu.icache.ReadReq.misses::total           419                       # number of ReadReq misses (Count)
system.cpu.icache.ReadReq.missLatency::cpu.inst     29914000                       # number of ReadReq miss ticks (Tick)
system.cpu.icache.ReadReq.missLatency::total     29914000                       # number of ReadReq miss ticks (Tick)
system.cpu.icache.ReadReq.accesses::cpu.inst       406834                       # number of ReadReq accesses(hits+misses) (Count)
system.cpu.icache.ReadReq.accesses::total       406834                       # number of ReadReq accesses(hits+misses) (Count)
system.cpu.icache.ReadReq.missRate::cpu.inst     0.001030                       # miss rate for ReadReq accesses (Ratio)
system.cpu.icache.ReadReq.missRate::total     0.001030                       # miss rate for ReadReq accesses (Ratio)
system.cpu.icache.ReadReq.avgMissLatency::cpu.inst 71393.794749                       # average ReadReq miss latency ((Tick/Count))
system.cpu.icache.ReadReq.avgMissLatency::total 71393.794749                       # average ReadReq miss latency ((Tick/Count))
system.cpu.icache.ReadReq.mshrHits::cpu.inst           59                       # number of ReadReq MSHR hits (Count)
system.cpu.icache.ReadReq.mshrHits::total           59                       # number of ReadReq MSHR hits (Count)
system.cpu.icache.ReadReq.mshrMisses::cpu.inst          360                       # number of ReadReq MSHR misses (Count)
system.cpu.icache.ReadReq.mshrMisses::total          360                       # number of ReadReq MSHR misses (Count)
system.cpu.icache.ReadReq.mshrMissLatency::cpu.inst     25623000                       # number of ReadReq MSHR miss ticks (Tick)
system.cpu.icache.ReadReq.mshrMissLatency::total     25623000                       # number of ReadReq MSHR miss ticks (Tick)
system.cpu.icache.ReadReq.mshrMissRate::cpu.inst     0.000885                       # mshr miss rate for ReadReq accesses (Ratio)
system.cpu.icache.ReadReq.mshrMissRate::total     0.000885                       # mshr miss rate for ReadReq accesses (Ratio)
system.cpu.icache.ReadReq.avgMshrMissLatency::cpu.inst        71175                       # average ReadReq mshr miss latency ((Tick/Count))
system.cpu.icache.ReadReq.avgMshrMissLatency::total        71175                       # average ReadReq mshr miss latency ((Tick/Count))
system.cpu.icache.power_state.pwrStateResidencyTicks::UNDEFINED   2253373000                       # Cumulative time (in ticks) in various power states (Tick)
system.cpu.icache.tags.tagsInUse                  256                       # Average ticks per tags in use ((Tick/Count))
system.cpu.icache.tags.totalRefs               489833                       # Total number of references to valid blocks. (Count)
system.cpu.icache.tags.sampledRefs                616                       # Sample count of references to valid blocks. (Count)
system.cpu.icache.tags.avgRefs             795.183442                       # Average number of references to valid blocks. ((Count/Count))
system.cpu.icache.tags.warmupTick                   0                       # The tick when the warmup percentage was hit. (Tick)
system.cpu.icache.tags.occupancies::cpu.inst          256                       # Average occupied blocks per tick, per requestor ((Count/Tick))
system.cpu.icache.tags.avgOccs::cpu.inst            1                       # Average percentage of cache occupancy ((Ratio/Tick))
system.cpu.icache.tags.avgOccs::total               1                       # Average percentage of cache occupancy ((Ratio/Tick))
system.cpu.icache.tags.occupanciesTaskId::1024          256                       # Occupied blocks per task id (Count)
system.cpu.icache.tags.ageTaskId_1024::0           89                       # Occupied blocks per task id, per block age (Count)
system.cpu.icache.tags.ageTaskId_1024::1           93                       # Occupied blocks per task id, per block age (Count)
system.cpu.icache.tags.ageTaskId_1024::3           74                       # Occupied blocks per task id, per block age (Count)
system.cpu.icache.tags.ratioOccsTaskId::1024            1                       # Ratio of occupied blocks and all blocks, per task id (Ratio)
system.cpu.icache.tags.tagAccesses            1627696                       # Number of tag accesses (Count)
system.cpu.icache.tags.dataAccesses           1627696                       # Number of data accesses (Count)
system.cpu.icache.tags.power_state.pwrStateResidencyTicks::UNDEFINED   2253373000                       # Cumulative time (in ticks) in various power states (Tick)
system.cpu.iew.idleCycles                           0                       # Number of cycles IEW is idle (Cycle)
system.cpu.iew.squashCycles                       987                       # Number of cycles IEW is squashing (Cycle)
system.cpu.iew.blockCycles                     424062                       # Number of cycles IEW is blocking (Cycle)
system.cpu.iew.unblockCycles                   231489                       # Number of cycles IEW is unblocking (Cycle)
system.cpu.iew.dispatchedInsts                8828857                       # Number of instructions dispatched to IQ (Count)
system.cpu.iew.dispSquashedInsts                  953                       # Number of squashed instructions skipped by dispatch (Count)
system.cpu.iew.dispLoadInsts                  1937701                       # Number of dispatched load instructions (Count)
system.cpu.iew.dispStoreInsts                 1594876                       # Number of dispatched store instructions (Count)
system.cpu.iew.dispNonSpecInsts                   235                       # Number of dispatched non-speculative instructions (Count)
system.cpu.iew.iqFullEvents                     23180                       # Number of times the IQ has become full, causing a stall (Count)
system.cpu.iew.lsqFullEvents                   204941                       # Number of times the LSQ has become full, causing a stall (Count)
system.cpu.iew.memOrderViolationEvents             97                       # Number of memory order violations (Count)
system.cpu.iew.predictedTakenIncorrect            199                       # Number of branches that were predicted taken incorrectly (Count)
system.cpu.iew.predictedNotTakenIncorrect          560                       # Number of branches that were predicted not taken incorrectly (Count)
system.cpu.iew.branchMispredicts                  759                       # Number of branch mispredicts detected at execute (Count)
system.cpu.iew.instsToCommit                  8812652                       # Cumulative count of insts sent to commit (Count)
system.cpu.iew.writebackCount                 8811300                       # Cumulative count of insts written-back (Count)
system.cpu.iew.producerInst                   4915177                       # Number of instructions producing a value (Count)
system.cpu.iew.consumerInst                   8083384                       # Number of instructions consuming a value (Count)
system.cpu.iew.wbRate                        3.515495                       # Insts written-back per cycle ((Count/Cycle))
system.cpu.iew.wbFanout                      0.608059                       # Average fanout of values written-back ((Count/Count))
system.cpu.lsq0.forwLoads                       66148                       # Number of loads that had data forwarded from stores (Count)
system.cpu.lsq0.squashedLoads                    8245                       # Number of loads squashed (Count)
system.cpu.lsq0.ignoredResponses                    0                       # Number of memory responses ignored because the instruction is squashed (Count)
system.cpu.lsq0.memOrderViolation                  97                       # Number of memory ordering violations (Count)
system.cpu.lsq0.squashedStores                   2469                       # Number of stores squashed (Count)
system.cpu.lsq0.rescheduledLoads                  277                       # Number of loads that were rescheduled (Count)
system.cpu.lsq0.blockedByCache                     61                       # Number of times an access to memory failed due to the cache being blocked (Count)
system.cpu.lsq0.loadToUse::samples            1929456                       # Distribution of cycle latency between the first time a load is issued and its completion (Unspecified)
system.cpu.lsq0.loadToUse::mean              4.778206                       # Distribution of cycle latency between the first time a load is issued and its completion (Unspecified)
system.cpu.lsq0.loadToUse::stdev            14.298666                       # Distribution of cycle latency between the first time a load is issued and its completion (Unspecified)
system.cpu.lsq0.loadToUse::0-9                1914654     99.23%     99.23% # Distribution of cycle latency between the first time a load is issued and its completion (Unspecified)
system.cpu.lsq0.loadToUse::10-19                  130      0.01%     99.24% # Distribution of cycle latency between the first time a load is issued and its completion (Unspecified)
system.cpu.lsq0.loadToUse::20-29                   57      0.00%     99.24% # Distribution of cycle latency between the first time a load is issued and its completion (Unspecified)
system.cpu.lsq0.loadToUse::30-39                   11      0.00%     99.24% # Distribution of cycle latency between the first time a load is issued and its completion (Unspecified)
system.cpu.lsq0.loadToUse::40-49                    2      0.00%     99.24% # Distribution of cycle latency between the first time a load is issued and its completion (Unspecified)
system.cpu.lsq0.loadToUse::50-59                    3      0.00%     99.24% # Distribution of cycle latency between the first time a load is issued and its completion (Unspecified)
system.cpu.lsq0.loadToUse::60-69                    1      0.00%     99.24% # Distribution of cycle latency between the first time a load is issued and its completion (Unspecified)
system.cpu.lsq0.loadToUse::70-79                    2      0.00%     99.24% # Distribution of cycle latency between the first time a load is issued and its completion (Unspecified)
system.cpu.lsq0.loadToUse::110-119                  1      0.00%     99.24% # Distribution of cycle latency between the first time a load is issued and its completion (Unspecified)
system.cpu.lsq0.loadToUse::120-129                  5      0.00%     99.24% # Distribution of cycle latency between the first time a load is issued and its completion (Unspecified)
system.cpu.lsq0.loadToUse::130-139                 11      0.00%     99.24% # Distribution of cycle latency between the first time a load is issued and its completion (Unspecified)
system.cpu.lsq0.loadToUse::140-149               9492      0.49%     99.74% # Distribution of cycle latency between the first time a load is issued and its completion (Unspecified)
system.cpu.lsq0.loadToUse::150-159               2681      0.14%     99.88% # Distribution of cycle latency between the first time a load is issued and its completion (Unspecified)
system.cpu.lsq0.loadToUse::160-169                 31      0.00%     99.88% # Distribution of cycle latency between the first time a load is issued and its completion (Unspecified)
system.cpu.lsq0.loadToUse::170-179               1276      0.07%     99.94% # Distribution of cycle latency between the first time a load is issued and its completion (Unspecified)
system.cpu.lsq0.loadToUse::180-189                400      0.02%     99.96% # Distribution of cycle latency between the first time a load is issued and its completion (Unspecified)
system.cpu.lsq0.loadToUse::190-199                 28      0.00%     99.97% # Distribution of cycle latency between the first time a load is issued and its completion (Unspecified)
system.cpu.lsq0.loadToUse::200-209                170      0.01%     99.97% # Distribution of cycle latency between the first time a load is issued and its completion (Unspecified)
system.cpu.lsq0.loadToUse::210-219                 74      0.00%     99.98% # Distribution of cycle latency between the first time a load is issued and its completion (Unspecified)
[...]
system.mem_ctrls.dram.perBankWrBursts::7           51                       # Per bank write bursts (Count)
system.mem_ctrls.dram.perBankWrBursts::8           86                       # Per bank write bursts (Count)
system.mem_ctrls.dram.perBankWrBursts::9           38                       # Per bank write bursts (Count)
system.mem_ctrls.dram.perBankWrBursts::10           81                       # Per bank write bursts (Count)
system.mem_ctrls.dram.perBankWrBursts::11           56                       # Per bank write bursts (Count)
system.mem_ctrls.dram.perBankWrBursts::12            0                       # Per bank write bursts (Count)
system.mem_ctrls.dram.perBankWrBursts::13           99                       # Per bank write bursts (Count)
system.mem_ctrls.dram.perBankWrBursts::14          149                       # Per bank write bursts (Count)
system.mem_ctrls.dram.perBankWrBursts::15            2                       # Per bank write bursts (Count)
system.mem_ctrls.dram.totQLat                66676500                       # Total ticks spent queuing (Tick)
system.mem_ctrls.dram.totBusLat              42370000                       # Total ticks spent in databus transfers (Tick)
system.mem_ctrls.dram.totMemAccLat          225564000                       # Total ticks spent from burst creation until serviced by the DRAM (Tick)
system.mem_ctrls.dram.avgQLat                 7868.36                       # Average queueing delay per DRAM burst ((Tick/Count))
system.mem_ctrls.dram.avgBusLat               5000.00                       # Average bus latency per DRAM burst ((Tick/Count))
system.mem_ctrls.dram.avgMemAccLat           26618.36                       # Average memory access latency per DRAM burst ((Tick/Count))
system.mem_ctrls.dram.readRowHits                7626                       # Number of row buffer hits during reads (Count)
system.mem_ctrls.dram.writeRowHits                777                       # Number of row buffer hits during writes (Count)
system.mem_ctrls.dram.readRowHitRate            89.99                       # Row buffer hit rate for reads (Ratio)
system.mem_ctrls.dram.writeRowHitRate           82.05                       # Row buffer hit rate for writes (Ratio)
system.mem_ctrls.dram.bytesPerActivate::samples         1016                       # Bytes accessed per row activation (Byte)
system.mem_ctrls.dram.bytesPerActivate::mean   594.267717                       # Bytes accessed per row activation (Byte)
system.mem_ctrls.dram.bytesPerActivate::gmean   421.099445                       # Bytes accessed per row activation (Byte)
system.mem_ctrls.dram.bytesPerActivate::stdev   368.048175                       # Bytes accessed per row activation (Byte)
system.mem_ctrls.dram.bytesPerActivate::0-127          142     13.98%     13.98% # Bytes accessed per row activation (Byte)
system.mem_ctrls.dram.bytesPerActivate::128-255          127     12.50%     26.48% # Bytes accessed per row activation (Byte)
system.mem_ctrls.dram.bytesPerActivate::256-383           46      4.53%     31.00% # Bytes accessed per row activation (Byte)
system.mem_ctrls.dram.bytesPerActivate::384-511           26      2.56%     33.56% # Bytes accessed per row activation (Byte)
system.mem_ctrls.dram.bytesPerActivate::512-639          170     16.73%     50.30% # Bytes accessed per row activation (Byte)
system.mem_ctrls.dram.bytesPerActivate::640-767          134     13.19%     63.48% # Bytes accessed per row activation (Byte)
system.mem_ctrls.dram.bytesPerActivate::768-895           13      1.28%     64.76% # Bytes accessed per row activation (Byte)
system.mem_ctrls.dram.bytesPerActivate::896-1023           19      1.87%     66.63% # Bytes accessed per row activation (Byte)
system.mem_ctrls.dram.bytesPerActivate::1024-1151          339     33.37%    100.00% # Bytes accessed per row activation (Byte)
system.mem_ctrls.dram.bytesPerActivate::total         1016                       # Bytes accessed per row activation (Byte)
system.mem_ctrls.dram.bytesRead                542336                       # Total bytes read (Byte)
system.mem_ctrls.dram.bytesWritten              60608                       # Total bytes written (Byte)
system.mem_ctrls.dram.avgRdBW              432.757824                       # Average DRAM read bandwidth in MiBytes/s ((Byte/Second))
system.mem_ctrls.dram.avgWrBW               48.362244                       # Average DRAM write bandwidth in MiBytes/s ((Byte/Second))
system.mem_ctrls.dram.peakBW                 12800.00                       # Theoretical peak bandwidth in MiByte/s ((Byte/Second))
system.mem_ctrls.dram.busUtil                    3.76                       # Data bus utilization in percentage (Ratio)
system.mem_ctrls.dram.busUtilRead                3.38                       # Data bus utilization in percentage for reads (Ratio)
system.mem_ctrls.dram.busUtilWrite               0.38                       # Data bus utilization in percentage for writes (Ratio)
system.mem_ctrls.dram.pageHitRate               89.19                       # Row buffer hit rate, read and write combined (Ratio)
system.mem_ctrls.dram.power_state.pwrStateResidencyTicks::UNDEFINED   2253373000                       # Cumulative time (in ticks) in various power states (Tick)
system.mem_ctrls.dram.rank0.actEnergy         3727080                       # Energy for activate commands per rank (pJ) (Joule)
system.mem_ctrls.dram.rank0.preEnergy         1954425                       # Energy for precharge commands per rank (pJ) (Joule)
system.mem_ctrls.dram.rank0.readEnergy       30887640                       # Energy for read commands per rank (pJ) (Joule)
system.mem_ctrls.dram.rank0.writeEnergy       2275920                       # Energy for write commands per rank (pJ) (Joule)
system.mem_ctrls.dram.rank0.refreshEnergy 98957040.000000                       # Energy for refresh commands per rank (pJ) (Joule)
system.mem_ctrls.dram.rank0.actBackEnergy    374230650                       # Energy for active background per rank (pJ) (Joule)
system.mem_ctrls.dram.rank0.preBackEnergy    167339040                       # Energy for precharge background per rank (pJ) (Joule)
system.mem_ctrls.dram.rank0.actPowerDownEnergy            0                       # Energy for active power-down per rank (pJ) (Joule)
system.mem_ctrls.dram.rank0.prePowerDownEnergy            0                       # Energy for precharge power-down per rank (pJ) (Joule)
system.mem_ctrls.dram.rank0.selfRefreshEnergy            0                       # Energy for self refresh per rank (pJ) (Joule)
system.mem_ctrls.dram.rank0.totalEnergy     679371795                       # Total energy per rank (pJ) (Joule)
system.mem_ctrls.dram.rank0.averagePower   542.105742                       # Core power per rank (mW) (Watt)
system.mem_ctrls.dram.rank0.totalIdleTime            0                       # Total Idle time Per DRAM Rank (Tick)
system.mem_ctrls.dram.rank0.pwrStateTime::IDLE    431512750                       # Time in different power states (Tick)
system.mem_ctrls.dram.rank0.pwrStateTime::REF     41860000                       # Time in different power states (Tick)
system.mem_ctrls.dram.rank0.pwrStateTime::SREF            0                       # Time in different power states (Tick)
system.mem_ctrls.dram.rank0.pwrStateTime::PRE_PDN            0                       # Time in different power states (Tick)
system.mem_ctrls.dram.rank0.pwrStateTime::ACT    783086500                       # Time in different power states (Tick)
system.mem_ctrls.dram.rank0.pwrStateTime::ACT_PDN            0                       # Time in different power states (Tick)
system.mem_ctrls.dram.rank1.actEnergy         3648540                       # Energy for activate commands per rank (pJ) (Joule)
system.mem_ctrls.dram.rank1.preEnergy         1924065                       # Energy for precharge commands per rank (pJ) (Joule)
system.mem_ctrls.dram.rank1.readEnergy       29930880                       # Energy for read commands per rank (pJ) (Joule)
system.mem_ctrls.dram.rank1.writeEnergy       2667420                       # Energy for write commands per rank (pJ) (Joule)
system.mem_ctrls.dram.rank1.refreshEnergy 98957040.000000                       # Energy for refresh commands per rank (pJ) (Joule)
system.mem_ctrls.dram.rank1.actBackEnergy    373071840                       # Energy for active background per rank (pJ) (Joule)
system.mem_ctrls.dram.rank1.preBackEnergy    168267360                       # Energy for precharge background per rank (pJ) (Joule)
system.mem_ctrls.dram.rank1.actPowerDownEnergy            0                       # Energy for active power-down per rank (pJ) (Joule)
system.mem_ctrls.dram.rank1.prePowerDownEnergy            0                       # Energy for precharge power-down per rank (pJ) (Joule)
system.mem_ctrls.dram.rank1.selfRefreshEnergy            0                       # Energy for self refresh per rank (pJ) (Joule)
system.mem_ctrls.dram.rank1.totalEnergy     678467145                       # Total energy per rank (pJ) (Joule)
system.mem_ctrls.dram.rank1.averagePower   541.383875                       # Core power per rank (mW) (Watt)
system.mem_ctrls.dram.rank1.totalIdleTime            0                       # Total Idle time Per DRAM Rank (Tick)
system.mem_ctrls.dram.rank1.pwrStateTime::IDLE    433839500                       # Time in different power states (Tick)
system.mem_ctrls.dram.rank1.pwrStateTime::REF     41860000                       # Time in different power states (Tick)
system.mem_ctrls.dram.rank1.pwrStateTime::SREF            0                       # Time in different power states (Tick)
system.mem_ctrls.dram.rank1.pwrStateTime::PRE_PDN            0                       # Time in different power states (Tick)
system.mem_ctrls.dram.rank1.pwrStateTime::ACT    780636500                       # Time in different power states (Tick)
system.mem_ctrls.dram.rank1.pwrStateTime::ACT_PDN            0                       # Time in different power states (Tick)
system.mem_ctrls.power_state.pwrStateResidencyTicks::UNDEFINED   2253373000                       # Cumulative time (in ticks) in various power states (Tick)
system.membus.transDist::ReadResp                8465                       # Transaction distribution (Count)
system.membus.transDist::WritebackDirty           945                       # Transaction distribution (Count)
system.membus.transDist::CleanEvict              7492                       # Transaction distribution (Count)
system.membus.transDist::ReadExReq                  9                       # Transaction distribution (Count)
system.membus.transDist::ReadExResp                 9                       # Transaction distribution (Count)
system.membus.transDist::ReadSharedReq           8465                       # Transaction distribution (Count)
system.membus.pktCount_system.l2.mem_side_port::system.mem_ctrls.port        25385                       # Packet count per connected requestor and responder (Count)
system.membus.pktCount::total                   25385                       # Packet count per connected requestor and responder (Count)
system.membus.pktSize_system.l2.mem_side_port::system.mem_ctrls.port       602816                       # Cumulative packet size per connected requestor and responder (Byte)
system.membus.pktSize::total                   602816                       # Cumulative packet size per connected requestor and responder (Byte)
system.membus.snoops                                0                       # Total snoops (Count)
system.membus.snoopTraffic                          0                       # Total snoop traffic (Byte)
system.membus.snoopFanout::samples               8474                       # Request fanout histogram (Count)
system.membus.snoopFanout::mean                     0                       # Request fanout histogram (Count)
system.membus.snoopFanout::stdev                    0                       # Request fanout histogram (Count)
system.membus.snoopFanout::underflows               0      0.00%      0.00% # Request fanout histogram (Count)
system.membus.snoopFanout::0                     8474    100.00%    100.00% # Request fanout histogram (Count)
system.membus.snoopFanout::1                        0      0.00%    100.00% # Request fanout histogram (Count)
system.membus.snoopFanout::overflows                0      0.00%    100.00% # Request fanout histogram (Count)
system.membus.snoopFanout::min_value                0                       # Request fanout histogram (Count)
system.membus.snoopFanout::max_value                0                       # Request fanout histogram (Count)
system.membus.snoopFanout::total                 8474                       # Request fanout histogram (Count)
system.membus.power_state.pwrStateResidencyTicks::UNDEFINED   2253373000                       # Cumulative time (in ticks) in various power states (Tick)
system.membus.reqLayer0.occupancy            22380500                       # Layer occupancy (ticks) (Tick)
system.membus.reqLayer0.utilization               0.0                       # Layer utilization (Ratio)
system.membus.respLayer1.occupancy           43930500                       # Layer occupancy (ticks) (Tick)
system.membus.respLayer1.utilization              0.0                       # Layer utilization (Ratio)
system.membus.snoop_filter.totRequests          16911                       # Total number of requests made to the snoop filter. (Count)
system.membus.snoop_filter.hitSingleRequests         8437                       # Number of requests hitting in the snoop filter with a single holder of the requested data. (Count)
system.membus.snoop_filter.hitMultiRequests            0                       # Number of requests hitting in the snoop filter with multiple (>1) holders of the requested data. (Count)
system.membus.snoop_filter.totSnoops                0                       # Total number of snoops made to the snoop filter. (Count)
system.membus.snoop_filter.hitSingleSnoops            0                       # Number of snoops hitting in the snoop filter with a single holder of the requested data. (Count)
system.membus.snoop_filter.hitMultiSnoops            0                       # Number of snoops hitting in the snoop filter with multiple (>1) holders of the requested data. (Count)
system.tol2bus.transDist::ReadResp               8567                       # Transaction distribution (Count)
system.tol2bus.transDist::WritebackDirty         2509                       # Transaction distribution (Count)
system.tol2bus.transDist::WritebackClean          360                       # Transaction distribution (Count)
system.tol2bus.transDist::CleanEvict            14359                       # Transaction distribution (Count)
system.tol2bus.transDist::ReadExReq                20                       # Transaction distribution (Count)
system.tol2bus.transDist::ReadExResp               20                       # Transaction distribution (Count)
system.tol2bus.transDist::ReadCleanReq            361                       # Transaction distribution (Count)
system.tol2bus.transDist::ReadSharedReq          8207                       # Transaction distribution (Count)
system.tol2bus.pktCount_system.cpu.icache.mem_side_port::system.l2.cpu_side_port         1081                       # Packet count per connected requestor and responder (Count)
system.tol2bus.pktCount_system.cpu.dcache.mem_side_port::system.l2.cpu_side_port        24681                       # Packet count per connected requestor and responder (Count)
system.tol2bus.pktCount::total                  25762                       # Packet count per connected requestor and responder (Count)
system.tol2bus.pktSize_system.cpu.icache.mem_side_port::system.l2.cpu_side_port        46080                       # Cumulative packet size per connected requestor and responder (Byte)
system.tol2bus.pktSize_system.cpu.dcache.mem_side_port::system.l2.cpu_side_port       626624                       # Cumulative packet size per connected requestor and responder (Byte)
system.tol2bus.pktSize::total                  672704                       # Cumulative packet size per connected requestor and responder (Byte)
system.tol2bus.snoops                            8641                       # Total snoops (Count)
system.tol2bus.snoopTraffic                     60480                       # Total snoop traffic (Byte)
system.tol2bus.snoopFanout::samples             17229                       # Request fanout histogram (Count)
system.tol2bus.snoopFanout::mean             0.015091                       # Request fanout histogram (Count)
system.tol2bus.snoopFanout::stdev            0.121918                       # Request fanout histogram (Count)
system.tol2bus.snoopFanout::underflows              0      0.00%      0.00% # Request fanout histogram (Count)
system.tol2bus.snoopFanout::0                   16969     98.49%     98.49% # Request fanout histogram (Count)
system.tol2bus.snoopFanout::1                     260      1.51%    100.00% # Request fanout histogram (Count)
system.tol2bus.snoopFanout::2                       0      0.00%    100.00% # Request fanout histogram (Count)
system.tol2bus.snoopFanout::overflows               0      0.00%    100.00% # Request fanout histogram (Count)
system.tol2bus.snoopFanout::min_value               0                       # Request fanout histogram (Count)
system.tol2bus.snoopFanout::max_value               1                       # Request fanout histogram (Count)
system.tol2bus.snoopFanout::total               17229                       # Request fanout histogram (Count)
system.tol2bus.power_state.pwrStateResidencyTicks::UNDEFINED   2253373000                       # Cumulative time (in ticks) in various power states (Tick)
system.tol2bus.reqLayer0.occupancy           10511500                       # Layer occupancy (ticks) (Tick)
system.tol2bus.reqLayer0.utilization              0.0                       # Layer utilization (Ratio)
system.tol2bus.respLayer0.occupancy            540000                       # Layer occupancy (ticks) (Tick)
system.tol2bus.respLayer0.utilization             0.0                       # Layer utilization (Ratio)
system.tol2bus.respLayer1.occupancy          12340500                       # Layer occupancy (ticks) (Tick)
system.tol2bus.respLayer1.utilization             0.0                       # Layer utilization (Ratio)
system.tol2bus.snoop_filter.totRequests         17175                       # Total number of requests made to the snoop filter. (Count)
system.tol2bus.snoop_filter.hitSingleRequests         8588                       # Number of requests hitting in the snoop filter with a single holder of the requested data. (Count)
system.tol2bus.snoop_filter.hitMultiRequests            0                       # Number of requests hitting in the snoop filter with multiple (>1) holders of the requested data. (Count)
system.tol2bus.snoop_filter.totSnoops             259                       # Total number of snoops made to the snoop filter. (Count)
system.tol2bus.snoop_filter.hitSingleSnoops          259                       # Number of snoops hitting in the snoop filter with a single holder of the requested data. (Count)
system.tol2bus.snoop_filter.hitMultiSnoops            0                       # Number of snoops hitting in the snoop filter with multiple (>1) holders of the requested data. (Count)
system.voltage_domain.voltage                       1                       # Voltage in Volts (Volt)
system.workload.inst.arm                            0                       # number of arm instructions executed (Count)
system.workload.inst.quiesce                        0                       # number of quiesce instructions executed (Count)

---------- End Simulation Statistics   ----------
