
---------- Begin Simulation Statistics ----------
simSeconds                                   0.005485                       # Number of seconds simulated (Second)
simTicks                                   5485373000                       # Number of ticks simulated (Tick)
finalTick                                  5485373000                       # Number of ticks from beginning of simulation (restored from checkpoints and never reset) (Tick)
simFreq                                  1000000000000                       # The number of ticks per simulated second ((Tick/Second))
hostSeconds                                     75.70                       # Real time elapsed on the host (Second)
hostTickRate                                 72460219                       # The number of ticks simulated per host second (ticks/s) ((Tick/Second))
hostMemory                                     681144                       # Number of bytes of host memory used (Byte)
simInsts                                     31739894                       # Number of instructions simulated (Count)
simOps                                       32011873                       # Number of ops (including micro ops) simulated (Count)
hostInstRate                                   419274                       # Simulator instruction rate (inst/s) ((Count/Second))
hostOpRate                                     422867                       # Simulator op (including micro ops) rate (op/s) ((Count/Second))
system.clk_domain.clock                          1000                       # Clock period in ticks (Tick)
system.cpu.numCycles                         10970747                       # Number of cpu cycles simulated (Cycle)
system.cpu.numWorkItemsStarted                      0                       # Number of work items this cpu started (Count)
system.cpu.numWorkItemsCompleted                    0                       # Number of work items this cpu completed (Count)
system.cpu.instsAdded                        32614447                       # Number of instructions added to the IQ (excludes non-spec) (Count)
system.cpu.nonSpecInstsAdded                      416                       # Number of non-speculative instructions added to the IQ (Count)
system.cpu.instsIssued                       32442505                       # Number of instructions issued (Count)
system.cpu.squashedInstsIssued                   2246                       # Number of squashed instructions issued (Count)
system.cpu.squashedInstsExamined               602989                       # Number of squashed instructions iterated over during squash; mainly for profiling (Count)
system.cpu.squashedOperandsExamined            465013                       # Number of squashed operands that are examined and possibly removed from graph (Count)
system.cpu.squashedNonSpecRemoved                 137                       # Number of squashed non-spec instructions that were removed (Count)
system.cpu.numIssuedDist::samples            10822300                       # Number of insts issued each cycle (Count)
system.cpu.numIssuedDist::mean               2.997746                       # Number of insts issued each cycle (Count)
system.cpu.numIssuedDist::stdev              2.167298                       # Number of insts issued each cycle (Count)
system.cpu.numIssuedDist::underflows                0      0.00%      0.00% # Number of insts issued each cycle (Count)
system.cpu.numIssuedDist::0                   2210465     20.43%     20.43% # Number of insts issued each cycle (Count)
system.cpu.numIssuedDist::1                    808286      7.47%     27.89% # Number of insts issued each cycle (Count)
system.cpu.numIssuedDist::2                   2158617     19.95%     47.84% # Number of insts issued each cycle (Count)
system.cpu.numIssuedDist::3                    527815      4.88%     52.72% # Number of insts issued each cycle (Count)
system.cpu.numIssuedDist::4                   1865122     17.23%     69.95% # Number of insts issued each cycle (Count)
system.cpu.numIssuedDist::5                   1493900     13.80%     83.75% # Number of insts issued each cycle (Count)
system.cpu.numIssuedDist::6                   1553098     14.35%     98.11% # Number of insts issued each cycle (Count)
system.cpu.numIssuedDist::7                    155012      1.43%     99.54% # Number of insts issued each cycle (Count)
system.cpu.numIssuedDist::8                     49985      0.46%    100.00% # Number of insts issued each cycle (Count)
system.cpu.numIssuedDist::overflows                 0      0.00%    100.00% # Number of insts issued each cycle (Count)
system.cpu.numIssuedDist::min_value                 0                       # Number of insts issued each cycle (Count)
system.cpu.numIssuedDist::max_value                 8                       # Number of insts issued each cycle (Count)
system.cpu.numIssuedDist::total              10822300                       # Number of insts issued each cycle (Count)
system.cpu.statFuBusy::No_OpClass                   0      0.00%      0.00% # attempts to use FU when none available (Count)
system.cpu.statFuBusy::IntAlu                  361865     88.51%     88.51% # attempts to use FU when none available (Count)
system.cpu.statFuBusy::IntMult                      1      0.00%     88.51% # attempts to use FU when none available (Count)
system.cpu.statFuBusy::IntDiv                    1241      0.30%     88.81% # attempts to use FU when none available (Count)
system.cpu.statFuBusy::FloatAdd                     0      0.00%     88.81% # attempts to use FU when none available (Count)
system.cpu.statFuBusy::FloatCmp                     0      0.00%     88.81% # attempts to use FU when none available (Count)
system.cpu.statFuBusy::FloatCvt                     0      0.00%     88.81% # attempts to use FU when none available (Count)
system.cpu.statFuBusy::FloatMult                    0      0.00%     88.81% # attempts to use FU when none available (Count)
system.cpu.statFuBusy::FloatMultAcc                 0      0.00%     88.81% # attempts to use FU when none available (Count)
system.cpu.statFuBusy::FloatDiv                     0      0.00%     88.81% # attempts to use FU when none available (Count)
system.cpu.statFuBusy::FloatMisc                    0      0.00%     88.81% # attempts to use FU when none available (Count)
system.cpu.statFuBusy::FloatSqrt                    0      0.00%     88.81% # attempts to use FU when none available (Count)
system.cpu.statFuBusy::SimdAdd                     24      0.01%     88.82% # attempts to use FU when none available (Count)
system.cpu.statFuBusy::SimdAddAcc                   0      0.00%     88.82% # attempts to use FU when none available (Count)
system.cpu.statFuBusy::SimdAlu                   2242      0.55%     89.37% # attempts to use FU when none available (Count)
system.cpu.statFuBusy::SimdCmp                     14      0.00%     89.37% # attempts to use FU when none available (Count)
system.cpu.statFuBusy::SimdCvt                      0      0.00%     89.37% # attempts to use FU when none available (Count)
system.cpu.statFuBusy::SimdMisc                   114      0.03%     89.40% # attempts to use FU when none available (Count)
system.cpu.statFuBusy::SimdMult                     0      0.00%     89.40% # attempts to use FU when none available (Count)
system.cpu.statFuBusy::SimdMultAcc                  0      0.00%     89.40% # attempts to use FU when none available (Count)
system.cpu.statFuBusy::SimdShift                    0      0.00%     89.40% # attempts to use FU when none available (Count)
system.cpu.statFuBusy::SimdShiftAcc                 0      0.00%     89.40% # attempts to use FU when none available (Count)
system.cpu.statFuBusy::SimdDiv                      0      0.00%     89.40% # attempts to use FU when none available (Count)
system.cpu.statFuBusy::SimdSqrt                     0      0.00%     89.40% # attempts to use FU when none available (Count)
system.cpu.statFuBusy::SimdFloatAdd                 0      0.00%     89.40% # attempts to use FU when none available (Count)
system.cpu.statFuBusy::SimdFloatAlu                 0      0.00%     89.40% # attempts to use FU when none available (Count)
system.cpu.statFuBusy::SimdFloatCmp                 0      0.00%     89.40% # attempts to use FU when none available (Count)
system.cpu.statFuBusy::SimdFloatCvt                 0      0.00%     89.40% # attempts to use FU when none available (Count)
system.cpu.statFuBusy::SimdFloatDiv                 0      0.00%     89.40% # attempts to use FU when none available (Count)
system.cpu.statFuBusy::SimdFloatMisc                0      0.00%     89.40% # attempts to use FU when none available (Count)
system.cpu.statFuBusy::SimdFloatMult                0      0.00%     89.40% # attempts to use FU when none available (Count)
system.cpu.statFuBusy::SimdFloatMultAcc             0      0.00%     89.40% # attempts to use FU when none available (Count)
system.cpu.statFuBusy::SimdFloatSqrt                0      0.00%     89.40% # attempts to use FU when none available (Count)
system.cpu.statFuBusy::SimdReduceAdd                0      0.00%     89.40% # attempts to use FU when none available (Count)
system.cpu.statFuBusy::SimdReduceAlu                0      0.00%     89.40% # attempts to use FU when none available (Count)
system.cpu.statFuBusy::SimdReduceCmp                0      0.00%     89.40% # attempts to use FU when none available (Count)
system.cpu.statFuBusy::SimdFloatReduceAdd            0      0.00%     89.40% # attempts to use FU when none available (Count)
system.cpu.statFuBusy::SimdFloatReduceCmp            0      0.00%     89.40% # attempts to use FU when none available (Count)
system.cpu.statFuBusy::SimdAes                      0      0.00%     89.40% # attempts to use FU when none available (Count)
system.cpu.statFuBusy::SimdAesMix                   0      0.00%     89.40% # attempts to use FU when none available (Count)
system.cpu.statFuBusy::SimdSha1Hash                 0      0.00%     89.40% # attempts to use FU when none available (Count)
system.cpu.statFuBusy::SimdSha1Hash2                0      0.00%     89.40% # attempts to use FU when none available (Count)
system.cpu.statFuBusy::SimdSha256Hash               0      0.00%     89.40% # attempts to use FU when none available (Count)
system.cpu.statFuBusy::SimdSha256Hash2              0      0.00%     89.40% # attempts to use FU when none available (Count)
system.cpu.statFuBusy::SimdShaSigma2                0      0.00%     89.40% # attempts to use FU when none available (Count)
system.cpu.statFuBusy::SimdShaSigma3                0      0.00%     89.40% # attempts to use FU when none available (Count)
system.cpu.statFuBusy::SimdPredAlu                  0      0.00%     89.40% # attempts to use FU when none available (Count)
system.cpu.statFuBusy::MemRead                  28329      6.93%     96.33% # attempts to use FU when none available (Count)
system.cpu.statFuBusy::MemWrite                 15007      3.67%    100.00% # attempts to use FU when none available (Count)
system.cpu.statFuBusy::FloatMemRead                 0      0.00%    100.00% # attempts to use FU when none available (Count)
system.cpu.statFuBusy::FloatMemWrite                0      0.00%    100.00% # attempts to use FU when none available (Count)
system.cpu.statFuBusy::IprAccess                    0      0.00%    100.00% # attempts to use FU when none available (Count)
system.cpu.statFuBusy::InstPrefetch                 0      0.00%    100.00% # attempts to use FU when none available (Count)
system.cpu.statIssuedInstType_0::No_OpClass         1018      0.00%      0.00% # Number of instructions issued per FU type, per thread (Count)
system.cpu.statIssuedInstType_0::IntAlu      23936098     73.78%     73.78% # Number of instructions issued per FU type, per thread (Count)
system.cpu.statIssuedInstType_0::IntMult         7666      0.02%     73.81% # Number of instructions issued per FU type, per thread (Count)
system.cpu.statIssuedInstType_0::IntDiv          2727      0.01%     73.82% # Number of instructions issued per FU type, per thread (Count)
system.cpu.statIssuedInstType_0::FloatAdd            0      0.00%     73.82% # Number of instructions issued per FU type, per thread (Count)
system.cpu.statIssuedInstType_0::FloatCmp            0      0.00%     73.82% # Number of instructions issued per FU type, per thread (Count)
system.cpu.statIssuedInstType_0::FloatCvt            2      0.00%     73.82% # Number of instructions issued per FU type, per thread (Count)
system.cpu.statIssuedInstType_0::FloatMult            2      0.00%     73.82% # Number of instructions issued per FU type, per thread (Count)
system.cpu.statIssuedInstType_0::FloatMultAcc            0      0.00%     73.82% # Number of instructions issued per FU type, per thread (Count)
system.cpu.statIssuedInstType_0::FloatDiv            2      0.00%     73.82% # Number of instructions issued per FU type, per thread (Count)
system.cpu.statIssuedInstType_0::FloatMisc            6      0.00%     73.82% # Number of instructions issued per FU type, per thread (Count)
system.cpu.statIssuedInstType_0::FloatSqrt            0      0.00%     73.82% # Number of instructions issued per FU type, per thread (Count)
system.cpu.statIssuedInstType_0::SimdAdd      1255358      3.87%     77.68% # Number of instructions issued per FU type, per thread (Count)
system.cpu.statIssuedInstType_0::SimdAddAcc            0      0.00%     77.68% # Number of instructions issued per FU type, per thread (Count)
system.cpu.statIssuedInstType_0::SimdAlu      2510737      7.74%     85.42% # Number of instructions issued per FU type, per thread (Count)
system.cpu.statIssuedInstType_0::SimdCmp          121      0.00%     85.42% # Number of instructions issued per FU type, per thread (Count)
system.cpu.statIssuedInstType_0::SimdCvt            0      0.00%     85.42% # Number of instructions issued per FU type, per thread (Count)
system.cpu.statIssuedInstType_0::SimdMisc      1255290      3.87%     89.29% # Number of instructions issued per FU type, per thread (Count)
system.cpu.statIssuedInstType_0::SimdMult            0      0.00%     89.29% # Number of instructions issued per FU type, per thread (Count)
system.cpu.statIssuedInstType_0::SimdMultAcc            0      0.00%     89.29% # Number of instructions issued per FU type, per thread (Count)
system.cpu.statIssuedInstType_0::SimdShift            0      0.00%     89.29% # Number of instructions issued per FU type, per thread (Count)
system.cpu.statIssuedInstType_0::SimdShiftAcc            0      0.00%     89.29% # Number of instructions issued per FU type, per thread (Count)
system.cpu.statIssuedInstType_0::SimdDiv            0      0.00%     89.29% # Number of instructions issued per FU type, per thread (Count)
system.cpu.statIssuedInstType_0::SimdSqrt            0      0.00%     89.29% # Number of instructions issued per FU type, per thread (Count)
system.cpu.statIssuedInstType_0::SimdFloatAdd            0      0.00%     89.29% # Number of instructions issued per FU type, per thread (Count)
system.cpu.statIssuedInstType_0::SimdFloatAlu            0      0.00%     89.29% # Number of instructions issued per FU type, per thread (Count)
system.cpu.statIssuedInstType_0::SimdFloatCmp            0      0.00%     89.29% # Number of instructions issued per FU type, per thread (Count)
system.cpu.statIssuedInstType_0::SimdFloatCvt            0      0.00%     89.29% # Number of instructions issued per FU type, per thread (Count)
system.cpu.statIssuedInstType_0::SimdFloatDiv            0      0.00%     89.29% # Number of instructions issued per FU type, per thread (Count)
system.cpu.statIssuedInstType_0::SimdFloatMisc            0      0.00%     89.29% # Number of instructions issued per FU type, per thread (Count)
system.cpu.statIssuedInstType_0::SimdFloatMult            0      0.00%     89.29% # Number of instructions issued per FU type, per thread (Count)
system.cpu.statIssuedInstType_0::SimdFloatMultAcc            0      0.00%     89.29% # Number of instructions issued per FU type, per thread (Count)
system.cpu.statIssuedInstType_0::SimdFloatSqrt            0      0.00%     89.29% # Number of instructions issued per FU type, per thread (Count)
system.cpu.statIssuedInstType_0::SimdReduceAdd            0      0.00%     89.29% # Number of instructions issued per FU type, per thread (Count)
system.cpu.statIssuedInstType_0::SimdReduceAlu            0      0.00%     89.29% # Number of instructions issued per FU type, per thread (Count)
system.cpu.statIssuedInstType_0::SimdReduceCmp            0      0.00%     89.29% # Number of instructions issued per FU type, per thread (Count)
system.cpu.statIssuedInstType_0::SimdFloatReduceAdd            0      0.00%     89.29% # Number of instructions issued per FU type, per thread (Count)
system.cpu.statIssuedInstType_0::SimdFloatReduceCmp            0      0.00%     89.29% # Number of instructions issued per FU type, per thread (Count)
system.cpu.statIssuedInstType_0::SimdAes            0      0.00%     89.29% # Number of instructions issued per FU type, per thread (Count)
system.cpu.statIssuedInstType_0::SimdAesMix            0      0.00%     89.29% # Number of instructions issued per FU type, per thread (Count)
system.cpu.statIssuedInstType_0::SimdSha1Hash            0      0.00%     89.29% # Number of instructions issued per FU type, per thread (Count)
system.cpu.statIssuedInstType_0::SimdSha1Hash2            0      0.00%     89.29% # Number of instructions issued per FU type, per thread (Count)
system.cpu.statIssuedInstType_0::SimdSha256Hash            0      0.00%     89.29% # Number of instructions issued per FU type, per thread (Count)
system.cpu.statIssuedInstType_0::SimdSha256Hash2            0      0.00%     89.29% # Number of instructions issued per FU type, per thread (Count)
system.cpu.statIssuedInstType_0::SimdShaSigma2            0      0.00%     89.29% # Number of instructions issued per FU type, per thread (Count)
system.cpu.statIssuedInstType_0::SimdShaSigma3            0      0.00%     89.29% # Number of instructions issued per FU type, per thread (Count)
system.cpu.statIssuedInstType_0::SimdPredAlu            0      0.00%     89.29% # Number of instructions issued per FU type, per thread (Count)
system.cpu.statIssuedInstType_0::MemRead      3193358      9.84%     99.14% # Number of instructions issued per FU type, per thread (Count)
system.cpu.statIssuedInstType_0::MemWrite       280120      0.86%    100.00% # Number of instructions issued per FU type, per thread (Count)
system.cpu.statIssuedInstType_0::FloatMemRead            0      0.00%    100.00% # Number of instructions issued per FU type, per thread (Count)
system.cpu.statIssuedInstType_0::FloatMemWrite            0      0.00%    100.00% # Number of instructions issued per FU type, per thread (Count)
system.cpu.statIssuedInstType_0::IprAccess            0      0.00%    100.00% # Number of instructions issued per FU type, per thread (Count)
system.cpu.statIssuedInstType_0::InstPrefetch            0      0.00%    100.00% # Number of instructions issued per FU type, per thread (Count)
system.cpu.statIssuedInstType_0::total       32442505                       # Number of instructions issued per FU type, per thread (Count)
system.cpu.issueRate                         2.957183                       # Inst issue rate ((Count/Cycle))
system.cpu.fuBusy                              408837                       # FU busy when requested (Count)
system.cpu.fuBusyRate                        0.012602                       # FU busy rate (busy events/executed inst) ((Count/Count))
system.cpu.intInstQueueReads                 61006805                       # Number of integer instruction queue reads (Count)
system.cpu.intInstQueueWrites                25659172                       # Number of integer instruction queue writes (Count)
system.cpu.intInstQueueWakeupAccesses        24792154                       # Number of integer instruction queue wakeup accesses (Count)
system.cpu.fpInstQueueReads                         0                       # Number of floating instruction queue reads (Count)
system.cpu.fpInstQueueWrites                        0                       # Number of floating instruction queue writes (Count)
system.cpu.fpInstQueueWakeupAccesses                0                       # Number of floating instruction queue wakeup accesses (Count)
system.cpu.vecInstQueueReads                 15111588                       # Number of vector instruction queue reads (Count)
system.cpu.vecInstQueueWrites                 7558778                       # Number of vector instruction queue writes (Count)
system.cpu.vecInstQueueWakeupAccesses         7535011                       # Number of vector instruction queue wakeup accesses (Count)
system.cpu.intAluAccesses                    25291727                       # Number of integer alu accesses (Count)
system.cpu.fpAluAccesses                            0                       # Number of floating point alu accesses (Count)
system.cpu.vecAluAccesses                     7558597                       # Number of vector alu accesses (Count)
system.cpu.numInsts                          32415005                       # Number of executed instructions (Count)
system.cpu.numLoadInsts                       3181598                       # Number of load instructions executed (Count)
system.cpu.numSquashedInsts                     27500                       # Number of squashed instructions skipped in execute (Count)
system.cpu.numSwp                                   0                       # Number of swp insts executed (Count)
system.cpu.numNop                              327422                       # Number of nop insts executed (Count)
system.cpu.numRefs                            3460134                       # Number of memory reference insts executed (Count)
system.cpu.numBranches                        4063649                       # Number of branches executed (Count)
system.cpu.numStoreInsts                       278536                       # Number of stores executed (Count)
system.cpu.numRate                           2.954676                       # Inst execution rate ((Count/Cycle))
system.cpu.timesIdled                            1524                       # Number of times that the entire CPU went into an idle state and unscheduled itself (Count)
system.cpu.idleCycles                          148447                       # Total number of cycles that the CPU has spent unscheduled due to idling (Cycle)
system.cpu.committedInsts                    31739894                       # Number of Instructions Simulated (Count)
system.cpu.committedOps                      32011873                       # Number of Ops (including micro ops) Simulated (Count)
system.cpu.cpi                               0.345645                       # CPI: Cycles Per Instruction ((Cycle/Count))
system.cpu.totalCpi                          0.345645                       # CPI: Total CPI of All Threads ((Cycle/Count))
system.cpu.ipc                               2.893139                       # IPC: Instructions Per Cycle ((Count/Cycle))
system.cpu.totalIpc                          2.893139                       # IPC: Total IPC of All Threads ((Count/Cycle))
system.cpu.intRegfileReads                   35027416                       # Number of integer regfile reads (Count)
system.cpu.intRegfileWrites                  16296363                       # Number of integer regfile writes (Count)
system.cpu.vecRegfileReads                   12558351                       # number of vector regfile reads (Count)
system.cpu.ccRegfileReads                    16496994                       # number of cc regfile reads (Count)
system.cpu.ccRegfileWrites                   16497765                       # number of cc regfile writes (Count)
system.cpu.miscRegfileReads                  16803175                       # number of misc regfile reads (Count)
system.cpu.miscRegfileWrites                      220                       # number of misc regfile writes (Count)
system.cpu.MemDepUnit__0.insertedLoads        3160437                       # Number of loads inserted to the mem dependence unit. (Count)
system.cpu.MemDepUnit__0.insertedStores        285871                       # Number of stores inserted to the mem dependence unit. (Count)
system.cpu.MemDepUnit__0.conflictingLoads         9399                       # Number of conflicting loads. (Count)
system.cpu.MemDepUnit__0.conflictingStores        13468                       # Number of conflicting stores. (Count)
system.cpu.MemDepUnit__1.insertedLoads              0                       # Number of loads inserted to the mem dependence unit. (Count)
system.cpu.MemDepUnit__1.insertedStores             0                       # Number of stores inserted to the mem dependence unit. (Count)
system.cpu.MemDepUnit__1.conflictingLoads            0                       # Number of conflicting loads. (Count)
system.cpu.MemDepUnit__1.conflictingStores            0                       # Number of conflicting stores. (Count)
system.cpu.MemDepUnit__2.insertedLoads              0                       # Number of loads inserted to the mem dependence unit. (Count)
system.cpu.MemDepUnit__2.insertedStores             0                       # Number of stores inserted to the mem dependence unit. (Count)
system.cpu.MemDepUnit__2.conflictingLoads            0                       # Number of conflicting loads. (Count)
system.cpu.MemDepUnit__2.conflictingStores            0                       # Number of conflicting stores. (Count)
system.cpu.MemDepUnit__3.insertedLoads              0                       # Number of loads inserted to the mem dependence unit. (Count)
system.cpu.MemDepUnit__3.insertedStores             0                       # Number of stores inserted to the mem dependence unit. (Count)
system.cpu.MemDepUnit__3.conflictingLoads            0                       # Number of conflicting loads. (Count)
system.cpu.MemDepUnit__3.conflictingStores            0                       # Number of conflicting stores. (Count)
system.cpu.branchPred.lookups                 4194772                       # Number of BP lookups (Count)
system.cpu.branchPred.condPredicted           4118764                       # Number of conditional branches predicted (Count)
system.cpu.branchPred.condIncorrect             17592                       # Number of conditional branches incorrect (Count)
system.cpu.branchPred.BTBLookups              1746029                       # Number of BTB lookups (Count)
system.cpu.branchPred.BTBUpdates                 9446                       # Number of BTB updates (Count)
system.cpu.branchPred.BTBHits                 1743007                       # Number of BTB hits (Count)
system.cpu.branchPred.BTBHitRatio            0.998269                       # BTB Hit Ratio (Ratio)
system.cpu.branchPred.RASUsed                   17705                       # Number of times the RAS was used to get a target. (Count)
system.cpu.branchPred.RASIncorrect                 41                       # Number of incorrect RAS predictions. (Count)
system.cpu.branchPred.indirectLookups            6830                       # Number of indirect predictor lookups. (Count)
system.cpu.branchPred.indirectHits               1344                       # Number of indirect target hits. (Count)
system.cpu.branchPred.indirectMisses             5486                       # Number of indirect misses. (Count)
system.cpu.branchPred.indirectMispredicted          685                       # Number of mispredicted indirect branches. (Count)
system.cpu.commit.commitSquashedInsts          600912                       # The number of squashed insts skipped by commit (Count)
system.cpu.commit.commitNonSpecStalls             279                       # The number of times commit has been forced to stall to communicate backwards (Count)
system.cpu.commit.branchMispredicts             17576                       # The number of times a branch was mispredicted (Count)
system.cpu.commit.numCommittedDist::samples     10728740                       # Number of insts commited each cycle (Count)
system.cpu.commit.numCommittedDist::mean     3.014183                       # Number of insts commited each cycle (Count)
system.cpu.commit.numCommittedDist::stdev     3.377567                       # Number of insts commited each cycle (Count)
system.cpu.commit.numCommittedDist::underflows            0      0.00%      0.00% # Number of insts commited each cycle (Count)
system.cpu.commit.numCommittedDist::0         2694611     25.12%     25.12% # Number of insts commited each cycle (Count)
system.cpu.commit.numCommittedDist::1         4227583     39.40%     64.52% # Number of insts commited each cycle (Count)
system.cpu.commit.numCommittedDist::2           76694      0.71%     65.23% # Number of insts commited each cycle (Count)
system.cpu.commit.numCommittedDist::3           47784      0.45%     65.68% # Number of insts commited each cycle (Count)
system.cpu.commit.numCommittedDist::4          268429      2.50%     68.18% # Number of insts commited each cycle (Count)
system.cpu.commit.numCommittedDist::5           37293      0.35%     68.53% # Number of insts commited each cycle (Count)
system.cpu.commit.numCommittedDist::6          221165      2.06%     70.59% # Number of insts commited each cycle (Count)
system.cpu.commit.numCommittedDist::7           14551      0.14%     70.73% # Number of insts commited each cycle (Count)
system.cpu.commit.numCommittedDist::8         3140630     29.27%    100.00% # Number of insts commited each cycle (Count)
system.cpu.commit.numCommittedDist::overflows            0      0.00%    100.00% # Number of insts commited each cycle (Count)
system.cpu.commit.numCommittedDist::min_value            0                       # Number of insts commited each cycle (Count)
system.cpu.commit.numCommittedDist::max_value            8                       # Number of insts commited each cycle (Count)
system.cpu.commit.numCommittedDist::total     10728740                       # Number of insts commited each cycle (Count)
system.cpu.commit.instsCommitted             32066412                       # Number of instructions committed (Count)
system.cpu.commit.opsCommitted               32338391                       # Number of ops (including micro ops) committed (Count)
system.cpu.commit.memRefs                     3296106                       # Number of memory references committed (Count)
system.cpu.commit.loads                       3047547                       # Number of loads committed (Count)
system.cpu.commit.amos                            108                       # Number of atomic instructions committed (Count)
system.cpu.commit.membars                         116                       # Number of memory barriers committed (Count)
system.cpu.commit.branches                    4012197                       # Number of branches committed (Count)
system.cpu.commit.vectorInstructions          7529548                       # Number of committed Vector instructions. (Count)
system.cpu.commit.floating                          0                       # Number of committed floating point instructions. (Count)
system.cpu.commit.integer                    24452713                       # Number of committed integer instructions. (Count)
system.cpu.commit.functionCalls                 11057                       # Number of function calls committed. (Count)
system.cpu.commit.committedInstType_0::No_OpClass          131      0.00%      0.00% # Class of committed instruction (Count)
system.cpu.commit.committedInstType_0::IntAlu     24014465     74.26%     74.26% # Class of committed instruction (Count)
system.cpu.commit.committedInstType_0::IntMult         7090      0.02%     74.28% # Class of committed instruction (Count)
system.cpu.commit.committedInstType_0::IntDiv         2574      0.01%     74.29% # Class of committed instruction (Count)
system.cpu.commit.committedInstType_0::FloatAdd            0      0.00%     74.29% # Class of committed instruction (Count)
system.cpu.commit.committedInstType_0::FloatCmp            0      0.00%     74.29% # Class of committed instruction (Count)
system.cpu.commit.committedInstType_0::FloatCvt            1      0.00%     74.29% # Class of committed instruction (Count)
system.cpu.commit.committedInstType_0::FloatMult            1      0.00%     74.29% # Class of committed instruction (Count)
system.cpu.commit.committedInstType_0::FloatMultAcc            0      0.00%     74.29% # Class of committed instruction (Count)
system.cpu.commit.committedInstType_0::FloatDiv            1      0.00%     74.29% # Class of committed instruction (Count)
system.cpu.commit.committedInstType_0::FloatMisc            4      0.00%     74.29% # Class of committed instruction (Count)
system.cpu.commit.committedInstType_0::FloatSqrt            0      0.00%     74.29% # Class of committed instruction (Count)
system.cpu.commit.committedInstType_0::SimdAdd      1254475      3.88%     78.17% # Class of committed instruction (Count)
system.cpu.commit.committedInstType_0::SimdAddAcc            0      0.00%     78.17% # Class of committed instruction (Count)
system.cpu.commit.committedInstType_0::SimdAlu      2508951      7.76%     85.93% # Class of committed instruction (Count)
system.cpu.commit.committedInstType_0::SimdCmp           93      0.00%     85.93% # Class of committed instruction (Count)
system.cpu.commit.committedInstType_0::SimdCvt            0      0.00%     85.93% # Class of committed instruction (Count)
system.cpu.commit.committedInstType_0::SimdMisc      1254499      3.88%     89.81% # Class of committed instruction (Count)
system.cpu.commit.committedInstType_0::SimdMult            0      0.00%     89.81% # Class of committed instruction (Count)
system.cpu.commit.committedInstType_0::SimdMultAcc            0      0.00%     89.81% # Class of committed instruction (Count)
system.cpu.commit.committedInstType_0::SimdShift            0      0.00%     89.81% # Class of committed instruction (Count)
system.cpu.commit.committedInstType_0::SimdShiftAcc            0      0.00%     89.81% # Class of committed instruction (Count)
system.cpu.commit.committedInstType_0::SimdDiv            0      0.00%     89.81% # Class of committed instruction (Count)
system.cpu.commit.committedInstType_0::SimdSqrt            0      0.00%     89.81% # Class of committed instruction (Count)
system.cpu.commit.committedInstType_0::SimdFloatAdd            0      0.00%     89.81% # Class of committed instruction (Count)
system.cpu.commit.committedInstType_0::SimdFloatAlu            0      0.00%     89.81% # Class of committed instruction (Count)
system.cpu.commit.committedInstType_0::SimdFloatCmp            0      0.00%     89.81% # Class of committed instruction (Count)
system.cpu.commit.committedInstType_0::SimdFloatCvt            0      0.00%     89.81% # Class of committed instruction (Count)
system.cpu.commit.committedInstType_0::SimdFloatDiv            0      0.00%     89.81% # Class of committed instruction (Count)
system.cpu.commit.committedInstType_0::SimdFloatMisc            0      0.00%     89.81% # Class of committed instruction (Count)
system.cpu.commit.committedInstType_0::SimdFloatMult            0      0.00%     89.81% # Class of committed instruction (Count)
system.cpu.commit.committedInstType_0::SimdFloatMultAcc            0      0.00%     89.81% # Class of committed instruction (Count)
system.cpu.commit.committedInstType_0::SimdFloatSqrt            0      0.00%     89.81% # Class of committed instruction (Count)
system.cpu.commit.committedInstType_0::SimdReduceAdd            0      0.00%     89.81% # Class of committed instruction (Count)
system.cpu.commit.committedInstType_0::SimdReduceAlu            0      0.00%     89.81% # Class of committed instruction (Count)
system.cpu.commit.committedInstType_0::SimdReduceCmp            0      0.00%     89.81% # Class of committed instruction (Count)
system.cpu.commit.committedInstType_0::SimdFloatReduceAdd            0      0.00%     89.81% # Class of committed instruction (Count)
system.cpu.commit.committedInstType_0::SimdFloatReduceCmp            0      0.00%     89.81% # Class of committed instruction (Count)
system.cpu.commit.committedInstType_0::SimdAes            0      0.00%     89.81% # Class of committed instruction (Count)
system.cpu.commit.committedInstType_0::SimdAesMix            0      0.00%     89.81% # Class of committed instruction (Count)
system.cpu.commit.committedInstType_0::SimdSha1Hash            0      0.00%     89.81% # Class of committed instruction (Count)
system.cpu.commit.committedInstType_0::SimdSha1Hash2            0      0.00%     89.81% # Class of committed instruction (Count)
system.cpu.commit.committedInstType_0::SimdSha256Hash            0      0.00%     89.81% # Class of committed instruction (Count)
system.cpu.commit.committedInstType_0::SimdSha256Hash2            0      0.00%     89.81% # Class of committed instruction (Count)
system.cpu.commit.committedInstType_0::SimdShaSigma2            0      0.00%     89.81% # Class of committed instruction (Count)
system.cpu.commit.committedInstType_0::SimdShaSigma3            0      0.00%     89.81% # Class of committed instruction (Count)
system.cpu.commit.committedInstType_0::SimdPredAlu            0      0.00%     89.81% # Class of committed instruction (Count)
system.cpu.commit.committedInstType_0::MemRead      3047547      9.42%     99.23% # Class of committed instruction (Count)
system.cpu.commit.committedInstType_0::MemWrite       248559      0.77%    100.00% # Class of committed instruction (Count)
system.cpu.commit.committedInstType_0::FloatMemRead            0      0.00%    100.00% # Class of committed instruction (Count)
system.cpu.commit.committedInstType_0::FloatMemWrite            0      0.00%    100.00% # Class of committed instruction (Count)
system.cpu.commit.committedInstType_0::IprAccess            0      0.00%    100.00% # Class of committed instruction (Count)
system.cpu.commit.committedInstType_0::InstPrefetch            0      0.00%    100.00% # Class of committed instruction (Count)
system.cpu.commit.committedInstType_0::total     32338391                       # Class of committed instruction (Count)
system.cpu.commit.commitEligibleSamples       3140630                       # number cycles where commit BW limit reached (Cycle)
system.cpu.dcache.demandHits::cpu.data        3373894                       # number of demand (read+write) hits (Count)
system.cpu.dcache.demandHits::total           3373894                       # number of demand (read+write) hits (Count)
system.cpu.dcache.overallHits::cpu.data       3373894                       # number of overall hits (Count)
system.cpu.dcache.overallHits::total          3373894                       # number of overall hits (Count)
system.cpu.dcache.demandMisses::cpu.data       131984                       # number of demand (read+write) misses (Count)
system.cpu.dcache.demandMisses::total          131984                       # number of demand (read+write) misses (Count)
system.cpu.dcache.overallMisses::cpu.data       131984                       # number of overall misses (Count)
system.cpu.dcache.overallMisses::total         131984                       # number of overall misses (Count)
system.cpu.dcache.demandMissLatency::cpu.data  10081814982                       # number of demand (read+write) miss ticks (Tick)
system.cpu.dcache.demandMissLatency::total  10081814982                       # number of demand (read+write) miss ticks (Tick)
system.cpu.dcache.overallMissLatency::cpu.data  10081814982                       # number of overall miss ticks (Tick)
system.cpu.dcache.overallMissLatency::total  10081814982                       # number of overall miss ticks (Tick)
system.cpu.dcache.demandAccesses::cpu.data      3505878                       # number of demand (read+write) accesses (Count)
system.cpu.dcache.demandAccesses::total       3505878                       # number of demand (read+write) accesses (Count)
system.cpu.dcache.overallAccesses::cpu.data      3505878                       # number of overall (read+write) accesses (Count)
system.cpu.dcache.overallAccesses::total      3505878                       # number of overall (read+write) accesses (Count)
system.cpu.dcache.demandMissRate::cpu.data     0.037646                       # miss rate for demand accesses (Ratio)
system.cpu.dcache.demandMissRate::total      0.037646                       # miss rate for demand accesses (Ratio)
system.cpu.dcache.overallMissRate::cpu.data     0.037646                       # miss rate for overall accesses (Ratio)
system.cpu.dcache.overallMissRate::total     0.037646                       # miss rate for overall accesses (Ratio)
system.cpu.dcache.demandAvgMissLatency::cpu.data 76386.645215                       # average overall miss latency in ticks ((Tick/Count))
system.cpu.dcache.demandAvgMissLatency::total 76386.645215                       # average overall miss latency in ticks ((Tick/Count))
system.cpu.dcache.overallAvgMissLatency::cpu.data 76386.645215                       # average overall miss latency ((Tick/Count))
system.cpu.dcache.overallAvgMissLatency::total 76386.645215                       # average overall miss latency ((Tick/Count))
system.cpu.dcache.blockedCycles::no_mshrs       256115                       # number of cycles access was blocked (Cycle)
system.cpu.dcache.blockedCycles::no_targets          475                       # number of cycles access was blocked (Cycle)
system.cpu.dcache.blockedCauses::no_mshrs         3683                       # number of times access was blocked (Count)
system.cpu.dcache.blockedCauses::no_targets           11                       # number of times access was blocked (Count)
system.cpu.dcache.avgBlocked::no_mshrs      69.539777                       # average number of cycles each access was blocked ((Cycle/Count))
system.cpu.dcache.avgBlocked::no_targets    43.181818                       # average number of cycles each access was blocked ((Cycle/Count))
system.cpu.dcache.writebacks::writebacks        60216                       # number of writebacks (Count)
system.cpu.dcache.writebacks::total             60216                       # number of writebacks (Count)
system.cpu.dcache.demandMshrHits::cpu.data        50834                       # number of demand (read+write) MSHR hits (Count)
system.cpu.dcache.demandMshrHits::total         50834                       # number of demand (read+write) MSHR hits (Count)
system.cpu.dcache.overallMshrHits::cpu.data        50834                       # number of overall MSHR hits (Count)
system.cpu.dcache.overallMshrHits::total        50834                       # number of overall MSHR hits (Count)
system.cpu.dcache.demandMshrMisses::cpu.data        81150                       # number of demand (read+write) MSHR misses (Count)
system.cpu.dcache.demandMshrMisses::total        81150                       # number of demand (read+write) MSHR misses (Count)
system.cpu.dcache.overallMshrMisses::cpu.data        81150                       # number of overall MSHR misses (Count)
system.cpu.dcache.overallMshrMisses::total        81150                       # number of overall MSHR misses (Count)
system.cpu.dcache.demandMshrMissLatency::cpu.data   6612780696                       # number of demand (read+write) MSHR miss ticks (Tick)
system.cpu.dcache.demandMshrMissLatency::total   6612780696                       # number of demand (read+write) MSHR miss ticks (Tick)
system.cpu.dcache.overallMshrMissLatency::cpu.data   6612780696                       # number of overall MSHR miss ticks (Tick)
system.cpu.dcache.overallMshrMissLatency::total   6612780696                       # number of overall MSHR miss ticks (Tick)
system.cpu.dcache.demandMshrMissRate::cpu.data     0.023147                       # mshr miss ratio for demand accesses (Ratio)
system.cpu.dcache.demandMshrMissRate::total     0.023147                       # mshr miss ratio for demand accesses (Ratio)
system.cpu.dcache.overallMshrMissRate::cpu.data     0.023147                       # mshr miss ratio for overall accesses (Ratio)
system.cpu.dcache.overallMshrMissRate::total     0.023147                       # mshr miss ratio for overall accesses (Ratio)
system.cpu.dcache.demandAvgMshrMissLatency::cpu.data 81488.363475                       # average overall mshr miss latency ((Tick/Count))
system.cpu.dcache.demandAvgMshrMissLatency::total 81488.363475                       # average overall mshr miss latency ((Tick/Count))
system.cpu.dcache.overallAvgMshrMissLatency::cpu.data 81488.363475                       # average overall mshr miss latency ((Tick/Count))
system.cpu.dcache.overallAvgMshrMissLatency::total 81488.363475                       # average overall mshr miss latency ((Tick/Count))
system.cpu.dcache.replacements                  80131                       # number of replacements (Count)
system.cpu.dcache.ReadReq.hits::cpu.data      3188769                       # number of ReadReq hits (Count)
system.cpu.dcache.ReadReq.hits::total         3188769                       # number of ReadReq hits (Count)
system.cpu.dcache.ReadReq.misses::cpu.data        68644                       # number of ReadReq misses (Count)
system.cpu.dcache.ReadReq.misses::total         68644                       # number of ReadReq misses (Count)
system.cpu.dcache.ReadReq.missLatency::cpu.data   4721023500                       # number of ReadReq miss ticks (Tick)
system.cpu.dcache.ReadReq.missLatency::total   4721023500                       # number of ReadReq miss ticks (Tick)
system.cpu.dcache.ReadReq.accesses::cpu.data      3257413                       # number of ReadReq accesses(hits+misses) (Count)
system.cpu.dcache.ReadReq.accesses::total      3257413                       # number of ReadReq accesses(hits+misses) (Count)
system.cpu.dcache.ReadReq.missRate::cpu.data     0.021073                       # miss rate for ReadReq accesses (Ratio)
system.cpu.dcache.ReadReq.missRate::total     0.021073                       # miss rate for ReadReq accesses (Ratio)
system.cpu.dcache.ReadReq.avgMissLatency::cpu.data 68775.472000                       # average ReadReq miss latency ((Tick/Count))
system.cpu.dcache.ReadReq.avgMissLatency::total 68775.472000                       # average ReadReq miss latency ((Tick/Count))
system.cpu.dcache.ReadReq.mshrHits::cpu.data        47358                       # number of ReadReq MSHR hits (Count)
system.cpu.dcache.ReadReq.mshrHits::total        47358                       # number of ReadReq MSHR hits (Count)
system.cpu.dcache.ReadReq.mshrMisses::cpu.data        21286                       # number of ReadReq MSHR misses (Count)
system.cpu.dcache.ReadReq.mshrMisses::total        21286                       # number of ReadReq MSHR misses (Count)
system.cpu.dcache.ReadReq.mshrMissLatency::cpu.data   1520691000                       # number of ReadReq MSHR miss ticks (Tick)
system.cpu.dcache.ReadReq.mshrMissLatency::total   1520691000                       # number of ReadReq MSHR miss ticks (Tick)
system.cpu.dcache.ReadReq.mshrMissRate::cpu.data     0.006535                       # mshr miss rate for ReadReq accesses (Ratio)
system.cpu.dcache.ReadReq.mshrMissRate::total     0.006535                       # mshr miss rate for ReadReq accesses (Ratio)
system.cpu.dcache.ReadReq.avgMshrMissLatency::cpu.data 71440.900122                       # average ReadReq mshr miss latency ((Tick/Count))
system.cpu.dcache.ReadReq.avgMshrMissLatency::total 71440.900122                       # average ReadReq mshr miss latency ((Tick/Count))
system.cpu.dcache.SwapReq.hits::cpu.data          103                       # number of SwapReq hits (Count)
system.cpu.dcache.SwapReq.hits::total             103                       # number of SwapReq hits (Count)
system.cpu.dcache.SwapReq.misses::cpu.data            5                       # number of SwapReq misses (Count)
system.cpu.dcache.SwapReq.misses::total             5                       # number of SwapReq misses (Count)
system.cpu.dcache.SwapReq.missLatency::cpu.data       286000                       # number of SwapReq miss ticks (Tick)
system.cpu.dcache.SwapReq.missLatency::total       286000                       # number of SwapReq miss ticks (Tick)
system.cpu.dcache.SwapReq.accesses::cpu.data          108                       # number of SwapReq accesses(hits+misses) (Count)
system.cpu.dcache.SwapReq.accesses::total          108                       # number of SwapReq accesses(hits+misses) (Count)
system.cpu.dcache.SwapReq.missRate::cpu.data     0.046296                       # miss rate for SwapReq accesses (Ratio)
system.cpu.dcache.SwapReq.missRate::total     0.046296                       # miss rate for SwapReq accesses (Ratio)
system.cpu.dcache.SwapReq.avgMissLatency::cpu.data        57200                       # average SwapReq miss latency ((Tick/Count))
system.cpu.dcache.SwapReq.avgMissLatency::total        57200                       # average SwapReq miss latency ((Tick/Count))
system.cpu.dcache.SwapReq.mshrMisses::cpu.data            5                       # number of SwapReq MSHR misses (Count)
system.cpu.dcache.SwapReq.mshrMisses::total            5                       # number of SwapReq MSHR misses (Count)
system.cpu.dcache.SwapReq.mshrMissLatency::cpu.data       281000                       # number of SwapReq MSHR miss ticks (Tick)
system.cpu.dcache.SwapReq.mshrMissLatency::total       281000                       # number of SwapReq MSHR miss ticks (Tick)
system.cpu.dcache.SwapReq.mshrMissRate::cpu.data     0.046296                       # mshr miss rate for SwapReq accesses (Ratio)
system.cpu.dcache.SwapReq.mshrMissRate::total     0.046296                       # mshr miss rate for SwapReq accesses (Ratio)
system.cpu.dcache.SwapReq.avgMshrMissLatency::cpu.data        56200                       # average SwapReq mshr miss latency ((Tick/Count))
system.cpu.dcache.SwapReq.avgMshrMissLatency::total        56200                       # average SwapReq mshr miss latency ((Tick/Count))
system.cpu.dcache.WriteLineReq.misses::cpu.data          131                       # number of WriteLineReq misses (Count)
system.cpu.dcache.WriteLineReq.misses::total          131                       # number of WriteLineReq misses (Count)
system.cpu.dcache.WriteLineReq.missLatency::cpu.data      4174908                       # number of WriteLineReq miss ticks (Tick)
system.cpu.dcache.WriteLineReq.missLatency::total      4174908                       # number of WriteLineReq miss ticks (Tick)
system.cpu.dcache.WriteLineReq.accesses::cpu.data          131                       # number of WriteLineReq accesses(hits+misses) (Count)
system.cpu.dcache.WriteLineReq.accesses::total          131                       # number of WriteLineReq accesses(hits+misses) (Count)
system.cpu.dcache.WriteLineReq.missRate::cpu.data            1                       # miss rate for WriteLineReq accesses (Ratio)
system.cpu.dcache.WriteLineReq.missRate::total            1                       # miss rate for WriteLineReq accesses (Ratio)
system.cpu.dcache.WriteLineReq.avgMissLatency::cpu.data 31869.526718                       # average WriteLineReq miss latency ((Tick/Count))
system.cpu.dcache.WriteLineReq.avgMissLatency::total 31869.526718                       # average WriteLineReq miss latency ((Tick/Count))
system.cpu.dcache.WriteLineReq.mshrMisses::cpu.data          131                       # number of WriteLineReq MSHR misses (Count)
system.cpu.dcache.WriteLineReq.mshrMisses::total          131                       # number of WriteLineReq MSHR misses (Count)
system.cpu.dcache.WriteLineReq.mshrMissLatency::cpu.data      4043908                       # number of WriteLineReq MSHR miss ticks (Tick)
system.cpu.dcache.WriteLineReq.mshrMissLatency::total      4043908                       # number of WriteLineReq MSHR miss ticks (Tick)
system.cpu.dcache.WriteLineReq.mshrMissRate::cpu.data            1                       # mshr miss rate for WriteLineReq accesses (Ratio)
system.cpu.dcache.WriteLineReq.mshrMissRate::total            1                       # mshr miss rate for WriteLineReq accesses (Ratio)
system.cpu.dcache.WriteLineReq.avgMshrMissLatency::cpu.data 30869.526718                       # average WriteLineReq mshr miss latency ((Tick/Count))
system.cpu.dcache.WriteLineReq.avgMshrMissLatency::total 30869.526718                       # average WriteLineReq mshr miss latency ((Tick/Count))
system.cpu.dcache.WriteReq.hits::cpu.data       185125                       # number of WriteReq hits (Count)
system.cpu.dcache.WriteReq.hits::total         185125                       # number of WriteReq hits (Count)
system.cpu.dcache.WriteReq.misses::cpu.data        63209                       # number of WriteReq misses (Count)
system.cpu.dcache.WriteReq.misses::total        63209                       # number of WriteReq misses (Count)
system.cpu.dcache.WriteReq.missLatency::cpu.data   5356616574                       # number of WriteReq miss ticks (Tick)
system.cpu.dcache.WriteReq.missLatency::total   5356616574                       # number of WriteReq miss ticks (Tick)
system.cpu.dcache.WriteReq.accesses::cpu.data       248334                       # number of WriteReq accesses(hits+misses) (Count)
system.cpu.dcache.WriteReq.accesses::total       248334                       # number of WriteReq accesses(hits+misses) (Count)
system.cpu.dcache.WriteReq.missRate::cpu.data     0.254532                       # miss rate for WriteReq accesses (Ratio)
system.cpu.dcache.WriteReq.missRate::total     0.254532                       # miss rate for WriteReq accesses (Ratio)
system.cpu.dcache.WriteReq.avgMissLatency::cpu.data 84744.523312                       # average WriteReq miss latency ((Tick/Count))
system.cpu.dcache.WriteReq.avgMissLatency::total 84744.523312                       # average WriteReq miss latency ((Tick/Count))
system.cpu.dcache.WriteReq.mshrHits::cpu.data         3476                       # number of WriteReq MSHR hits (Count)
system.cpu.dcache.WriteReq.mshrHits::total         3476                       # number of WriteReq MSHR hits (Count)
system.cpu.dcache.WriteReq.mshrMisses::cpu.data        59733                       # number of WriteReq MSHR misses (Count)
system.cpu.dcache.WriteReq.mshrMisses::total        59733                       # number of WriteReq MSHR misses (Count)
system.cpu.dcache.WriteReq.mshrMissLatency::cpu.data   5088045788                       # number of WriteReq MSHR miss ticks (Tick)
system.cpu.dcache.WriteReq.mshrMissLatency::total   5088045788                       # number of WriteReq MSHR miss ticks (Tick)
system.cpu.dcache.WriteReq.mshrMissRate::cpu.data     0.240535                       # mshr miss rate for WriteReq accesses (Ratio)
system.cpu.dcache.WriteReq.mshrMissRate::total     0.240535                       # mshr miss rate for WriteReq accesses (Ratio)
system.cpu.dcache.WriteReq.avgMshrMissLatency::cpu.data 85179.813303                       # average WriteReq mshr miss latency ((Tick/Count))
system.cpu.dcache.WriteReq.avgMshrMissLatency::total 85179.813303                       # average WriteReq mshr miss latency ((Tick/Count))
system.cpu.dcache.power_state.pwrStateResidencyTicks::UNDEFINED   5485373000                       # Cumulative time (in ticks) in various power states (Tick)
system.cpu.dcache.tags.tagsInUse          1017.182946                       # Average ticks per tags in use ((Tick/Count))
system.cpu.dcache.tags.totalRefs              3455152                       # Total number of references to valid blocks. (Count)
system.cpu.dcache.tags.sampledRefs              81155                       # Sample count of references to valid blocks. (Count)
system.cpu.dcache.tags.avgRefs              42.574727                       # Average number of references to valid blocks. ((Count/Count))
system.cpu.dcache.tags.warmupTick              253500                       # The tick when the warmup percentage was hit. (Tick)
system.cpu.dcache.tags.occupancies::cpu.data  1017.182946                       # Average occupied blocks per tick, per requestor ((Count/Tick))
system.cpu.dcache.tags.avgOccs::cpu.data     0.993343                       # Average percentage of cache occupancy ((Ratio/Tick))
system.cpu.dcache.tags.avgOccs::total        0.993343                       # Average percentage of cache occupancy ((Ratio/Tick))
system.cpu.dcache.tags.occupanciesTaskId::1024         1024                       # Occupied blocks per task id (Count)
system.cpu.dcache.tags.ageTaskId_1024::0           86                       # Occupied blocks per task id, per block age (Count)
system.cpu.dcache.tags.ageTaskId_1024::1          588                       # Occupied blocks per task id, per block age (Count)
system.cpu.dcache.tags.ageTaskId_1024::2          348                       # Occupied blocks per task id, per block age (Count)
system.cpu.dcache.tags.ageTaskId_1024::3            2                       # Occupied blocks per task id, per block age (Count)
system.cpu.dcache.tags.ratioOccsTaskId::1024            1                       # Ratio of occupied blocks and all blocks, per task id (Ratio)
system.cpu.dcache.tags.tagAccesses           14105099                       # Number of tag accesses (Count)
system.cpu.dcache.tags.dataAccesses          14105099                       # Number of data accesses (Count)
system.cpu.dcache.tags.power_state.pwrStateResidencyTicks::UNDEFINED   5485373000                       # Cumulative time (in ticks) in various power states (Tick)
system.cpu.decode.idleCycles                  3265008                       # Number of cycles decode is idle (Cycle)
system.cpu.decode.blockedCycles               2320878                       # Number of cycles decode is blocked (Cycle)
system.cpu.decode.runCycles                   5105484                       # Number of cycles decode is running (Cycle)
system.cpu.decode.unblockCycles                112776                       # Number of cycles decode is unblocking (Cycle)
system.cpu.decode.squashCycles                  18154                       # Number of cycles decode is squashing (Cycle)
system.cpu.decode.branchResolved              1718805                       # Number of times decode resolved a branch (Count)
system.cpu.decode.branchMispred                   881                       # Number of times decode detected a branch misprediction (Count)
system.cpu.decode.decodedInsts               33102587                       # Number of instructions handled by decode (Count)
system.cpu.decode.squashedInsts                  2945                       # Number of squashed instructions handled by decode (Count)
system.cpu.fetch.icacheStallCycles            3378750                       # Number of cycles fetch is stalled on an Icache miss (Cycle)
system.cpu.fetch.insts                       32938252                       # Number of instructions fetch has processed (Count)
system.cpu.fetch.branches                     4194772                       # Number of branches that fetch encountered (Count)
system.cpu.fetch.predictedBranches            1762056                       # Number of branches that fetch has predicted taken (Count)
system.cpu.fetch.cycles                       7417902                       # Number of cycles fetch has run and was not squashing or blocked (Cycle)
system.cpu.fetch.squashCycles                   38018                       # Number of cycles fetch has spent squashing (Cycle)
system.cpu.fetch.miscStallCycles                  878                       # Number of cycles fetch has spent waiting on interrupts, or bad addresses, or out of MSHRs (Cycle)
system.cpu.fetch.pendingTrapStallCycles          5706                       # Number of stall cycles due to pending traps (Cycle)
system.cpu.fetch.icacheWaitRetryStallCycles           55                       # Number of stall cycles due to full MSHR (Cycle)
system.cpu.fetch.cacheLines                   3328645                       # Number of cache lines fetched (Count)
system.cpu.fetch.icacheSquashes                  5873                       # Number of outstanding Icache misses that were squashed (Count)
system.cpu.fetch.nisnDist::samples           10822300                       # Number of instructions fetched each cycle (Total) (Count)
system.cpu.fetch.nisnDist::mean              3.078706                       # Number of instructions fetched each cycle (Total) (Count)
system.cpu.fetch.nisnDist::stdev             3.571730                       # Number of instructions fetched each cycle (Total) (Count)
system.cpu.fetch.nisnDist::underflows               0      0.00%      0.00% # Number of instructions fetched each cycle (Total) (Count)
system.cpu.fetch.nisnDist::0                  5445938     50.32%     50.32% # Number of instructions fetched each cycle (Total) (Count)
system.cpu.fetch.nisnDist::1                   200616      1.85%     52.18% # Number of instructions fetched each cycle (Total) (Count)
system.cpu.fetch.nisnDist::2                   340575      3.15%     55.32% # Number of instructions fetched each cycle (Total) (Count)
system.cpu.fetch.nisnDist::3                  1077329      9.95%     65.28% # Number of instructions fetched each cycle (Total) (Count)
system.cpu.fetch.nisnDist::4                    48241      0.45%     65.72% # Number of instructions fetched each cycle (Total) (Count)
system.cpu.fetch.nisnDist::5                   181695      1.68%     67.40% # Number of instructions fetched each cycle (Total) (Count)
system.cpu.fetch.nisnDist::6                    39286      0.36%     67.76% # Number of instructions fetched each cycle (Total) (Count)
system.cpu.fetch.nisnDist::7                    41186      0.38%     68.15% # Number of instructions fetched each cycle (Total) (Count)
system.cpu.fetch.nisnDist::8                  3447434     31.85%    100.00% # Number of instructions fetched each cycle (Total) (Count)
system.cpu.fetch.nisnDist::overflows                0      0.00%    100.00% # Number of instructions fetched each cycle (Total) (Count)
system.cpu.fetch.nisnDist::min_value                0                       # Number of instructions fetched each cycle (Total) (Count)
system.cpu.fetch.nisnDist::max_value                8                       # Number of instructions fetched each cycle (Total) (Count)
system.cpu.fetch.nisnDist::total             10822300                       # Number of instructions fetched each cycle (Total) (Count)
system.cpu.fetch.branchRate                  0.382360                       # Number of branch fetches per cycle (Ratio)
system.cpu.fetch.rate                        3.002371                       # Number of inst fetches per cycle ((Count/Cycle))
system.cpu.icache.demandHits::cpu.inst        3325902                       # number of demand (read+write) hits (Count)
system.cpu.icache.demandHits::total           3325902                       # number of demand (read+write) hits (Count)
system.cpu.icache.overallHits::cpu.inst       3325902                       # number of overall hits (Count)
system.cpu.icache.overallHits::total          3325902                       # number of overall hits (Count)
system.cpu.icache.demandMisses::cpu.inst         2743                       # number of demand (read+write) misses (Count)
system.cpu.icache.demandMisses::total            2743                       # number of demand (read+write) misses (Count)
system.cpu.icache.overallMisses::cpu.inst         2743                       # number of overall misses (Count)
system.cpu.icache.overallMisses::total           2743                       # number of overall misses (Count)
system.cpu.icache.demandMissLatency::cpu.inst    185416499                       # number of demand (read+write) miss ticks (Tick)
system.cpu.icache.demandMissLatency::total    185416499                       # number of demand (read+write) miss ticks (Tick)
system.cpu.icache.overallMissLatency::cpu.inst    185416499                       # number of overall miss ticks (Tick)
system.cpu.icache.overallMissLatency::total    185416499                       # number of overall miss ticks (Tick)
system.cpu.icache.demandAccesses::cpu.inst      3328645                       # number of demand (read+write) accesses (Count)
system.cpu.icache.demandAccesses::total       3328645                       # number of demand (read+write) accesses (Count)
system.cpu.icache.overallAccesses::cpu.inst      3328645                       # number of overall (read+write) accesses (Count)
system.cpu.icache.overallAccesses::total      3328645                       # number of overall (read+write) accesses (Count)
system.cpu.icache.demandMissRate::cpu.inst     0.000824                       # miss rate for demand accesses (Ratio)
system.cpu.icache.demandMissRate::total      0.000824                       # miss rate for demand accesses (Ratio)
system.cpu.icache.overallMissRate::cpu.inst     0.000824                       # miss rate for overall accesses (Ratio)
system.cpu.icache.overallMissRate::total     0.000824                       # miss rate for overall accesses (Ratio)
system.cpu.icache.demandAvgMissLatency::cpu.inst 67596.244623                       # average overall miss latency in ticks ((Tick/Count))
system.cpu.icache.demandAvgMissLatency::total 67596.244623                       # average overall miss latency in ticks ((Tick/Count))
system.cpu.icache.overallAvgMissLatency::cpu.inst 67596.244623                       # average overall miss latency ((Tick/Count))
system.cpu.icache.overallAvgMissLatency::total 67596.244623                       # average overall miss latency ((Tick/Count))
system.cpu.icache.blockedCycles::no_mshrs          593                       # number of cycles access was blocked (Cycle)
system.cpu.icache.blockedCycles::no_targets            0                       # number of cycles access was blocked (Cycle)
system.cpu.icache.blockedCauses::no_mshrs           13                       # number of times access was blocked (Count)
system.cpu.icache.blockedCauses::no_targets            0                       # number of times access was blocked (Count)
system.cpu.icache.avgBlocked::no_mshrs      45.615385                       # average number of cycles each access was blocked ((Cycle/Count))
system.cpu.icache.avgBlocked::no_targets          nan                       # average number of cycles each access was blocked ((Cycle/Count))
system.cpu.icache.writebacks::writebacks         1893                       # number of writebacks (Count)
system.cpu.icache.writebacks::total              1893                       # number of writebacks (Count)
system.cpu.icache.demandMshrHits::cpu.inst          593                       # number of demand (read+write) MSHR hits (Count)
system.cpu.icache.demandMshrHits::total           593                       # number of demand (read+write) MSHR hits (Count)
system.cpu.icache.overallMshrHits::cpu.inst          593                       # number of overall MSHR hits (Count)
system.cpu.icache.overallMshrHits::total          593                       # number of overall MSHR hits (Count)
system.cpu.icache.demandMshrMisses::cpu.inst         2150                       # number of demand (read+write) MSHR misses (Count)
system.cpu.icache.demandMshrMisses::total         2150                       # number of demand (read+write) MSHR misses (Count)
system.cpu.icache.overallMshrMisses::cpu.inst         2150                       # number of overall MSHR misses (Count)
system.cpu.icache.overallMshrMisses::total         2150                       # number of overall MSHR misses (Count)
system.cpu.icache.demandMshrMissLatency::cpu.inst    147306500                       # number of demand (read+write) MSHR miss ticks (Tick)
system.cpu.icache.demandMshrMissLatency::total    147306500                       # number of demand (read+write) MSHR miss ticks (Tick)
system.cpu.icache.overallMshrMissLatency::cpu.inst    147306500                       # number of overall MSHR miss ticks (Tick)
system.cpu.icache.overallMshrMissLatency::total    147306500                       # number of overall MSHR miss ticks (Tick)
system.cpu.icache.demandMshrMissRate::cpu.inst     0.000646                       # mshr miss ratio for demand accesses (Ratio)
system.cpu.icache.demandMshrMissRate::total     0.000646                       # mshr miss ratio for demand accesses (Ratio)
system.cpu.icache.overallMshrMissRate::cpu.inst     0.000646                       # mshr miss ratio for overall accesses (Ratio)
system.cpu.icache.overallMshrMissRate::total     0.000646                       # mshr miss ratio for overall accesses (Ratio)
system.cpu.icache.demandAvgMshrMissLatency::cpu.inst 68514.651163                       # average overall mshr miss latency ((Tick/Count))
system.cpu.icache.demandAvgMshrMissLatency::total 68514.651163                       # average overall mshr miss latency ((Tick/Count))
system.cpu.icache.overallAvgMshrMissLatency::cpu.inst 68514.651163                       # average overall mshr miss latency ((Tick/Count))
system.cpu.icache.overallAvgMshrMissLatency::total 68514.651163                       # average overall mshr miss latency ((Tick/Count))
system.cpu.icache.replacements                   1893                       # number of replacements (Count)
system.cpu.icache.ReadReq.hits::cpu.inst      3325902                       # number of ReadReq hits (Count)
system.cpu.icache.ReadReq.hits::total         3325902                       # number of ReadReq hits (Count)
system.cpu.icache.ReadReq.misses::cpu.inst         2743                       # number of ReadReq misses (Count)
system.cpu.icache.ReadReq.misses::total          2743                       # number of ReadReq misses (Count)
system.cpu.icache.ReadReq.missLatency::cpu.inst    185416499                       # number of ReadReq miss ticks (Tick)
system.cpu.icache.ReadReq.missLatency::total    185416499                       # number of ReadReq miss ticks (Tick)
system.cpu.icache.ReadReq.accesses::cpu.inst      3328645                       # number of ReadReq accesses(hits+misses) (Count)
system.cpu.icache.ReadReq.accesses::total      3328645                       # number of ReadReq accesses(hits+misses) (Count)
system.cpu.icache.ReadReq.missRate::cpu.inst     0.000824                       # miss rate for ReadReq accesses (Ratio)
system.cpu.icache.ReadReq.missRate::total     0.000824                       # miss rate for ReadReq accesses (Ratio)
system.cpu.icache.ReadReq.avgMissLatency::cpu.inst 67596.244623                       # average ReadReq miss latency ((Tick/Count))
system.cpu.icache.ReadReq.avgMissLatency::total 67596.244623                       # average ReadReq miss latency ((Tick/Count))
system.cpu.icache.ReadReq.mshrHits::cpu.inst          593                       # number of ReadReq MSHR hits (Count)
system.cpu.icache.ReadReq.mshrHits::total          593                       # number of ReadReq MSHR hits (Count)
system.cpu.icache.ReadReq.mshrMisses::cpu.inst         2150                       # number of ReadReq MSHR misses (Count)
system.cpu.icache.ReadReq.mshrMisses::total         2150                       # number of ReadReq MSHR misses (Count)
system.cpu.icache.ReadReq.mshrMissLatency::cpu.inst    147306500                       # number of ReadReq MSHR miss ticks (Tick)
system.cpu.icache.ReadReq.mshrMissLatency::total    147306500                       # number of ReadReq MSHR miss ticks (Tick)
system.cpu.icache.ReadReq.mshrMissRate::cpu.inst     0.000646                       # mshr miss rate for ReadReq accesses (Ratio)
system.cpu.icache.ReadReq.mshrMissRate::total     0.000646                       # mshr miss rate for ReadReq accesses (Ratio)
system.cpu.icache.ReadReq.avgMshrMissLatency::cpu.inst 68514.651163                       # average ReadReq mshr miss latency ((Tick/Count))
system.cpu.icache.ReadReq.avgMshrMissLatency::total 68514.651163                       # average ReadReq mshr miss latency ((Tick/Count))
system.cpu.icache.power_state.pwrStateResidencyTicks::UNDEFINED   5485373000                       # Cumulative time (in ticks) in various power states (Tick)
system.cpu.icache.tags.tagsInUse           255.303189                       # Average ticks per tags in use ((Tick/Count))
system.cpu.icache.tags.totalRefs              3328051                       # Total number of references to valid blocks. (Count)
system.cpu.icache.tags.sampledRefs               2149                       # Sample count of references to valid blocks. (Count)
system.cpu.icache.tags.avgRefs            1548.651000                       # Average number of references to valid blocks. ((Count/Count))
system.cpu.icache.tags.warmupTick               87500                       # The tick when the warmup percentage was hit. (Tick)
system.cpu.icache.tags.occupancies::cpu.inst   255.303189                       # Average occupied blocks per tick, per requestor ((Count/Tick))
system.cpu.icache.tags.avgOccs::cpu.inst     0.997278                       # Average percentage of cache occupancy ((Ratio/Tick))
system.cpu.icache.tags.avgOccs::total        0.997278                       # Average percentage of cache occupancy ((Ratio/Tick))
system.cpu.icache.tags.occupanciesTaskId::1024          256                       # Occupied blocks per task id (Count)
system.cpu.icache.tags.ageTaskId_1024::0           74                       # Occupied blocks per task id, per block age (Count)
system.cpu.icache.tags.ageTaskId_1024::1          100                       # Occupied blocks per task id, per block age (Count)
system.cpu.icache.tags.ageTaskId_1024::3           82                       # Occupied blocks per task id, per block age (Count)
system.cpu.icache.tags.ratioOccsTaskId::1024            1                       # Ratio of occupied blocks and all blocks, per task id (Ratio)
system.cpu.icache.tags.tagAccesses           13316729                       # Number of tag accesses (Count)
system.cpu.icache.tags.dataAccesses          13316729                       # Number of data accesses (Count)
system.cpu.icache.tags.power_state.pwrStateResidencyTicks::UNDEFINED   5485373000                       # Cumulative time (in ticks) in various power states (Tick)
system.cpu.iew.idleCycles                           0                       # Number of cycles IEW is idle (Cycle)
system.cpu.iew.squashCycles                     18154                       # Number of cycles IEW is squashing (Cycle)
system.cpu.iew.blockCycles                     886096                       # Number of cycles IEW is blocking (Cycle)
system.cpu.iew.unblockCycles                    45012                       # Number of cycles IEW is unblocking (Cycle)
system.cpu.iew.dispatchedInsts               32942285                       # Number of instructions dispatched to IQ (Count)
system.cpu.iew.dispSquashedInsts                 5447                       # Number of squashed instructions skipped by dispatch (Count)
system.cpu.iew.dispLoadInsts                  3160437                       # Number of dispatched load instructions (Count)
system.cpu.iew.dispStoreInsts                  285871                       # Number of dispatched store instructions (Count)
system.cpu.iew.dispNonSpecInsts                   410                       # Number of dispatched non-speculative instructions (Count)
system.cpu.iew.iqFullEvents                     13863                       # Number of times the IQ has become full, causing a stall (Count)
system.cpu.iew.lsqFullEvents                    27471                       # Number of times the LSQ has become full, causing a stall (Count)
system.cpu.iew.memOrderViolationEvents             98                       # Number of memory order violations (Count)
system.cpu.iew.predictedTakenIncorrect           8416                       # Number of branches that were predicted taken incorrectly (Count)
system.cpu.iew.predictedNotTakenIncorrect        11655                       # Number of branches that were predicted not taken incorrectly (Count)
system.cpu.iew.branchMispredicts                20071                       # Number of branch mispredicts detected at execute (Count)
system.cpu.iew.instsToCommit                 32338932                       # Cumulative count of insts sent to commit (Count)
system.cpu.iew.writebackCount                32327165                       # Cumulative count of insts written-back (Count)
system.cpu.iew.producerInst                  23101986                       # Number of instructions producing a value (Count)
system.cpu.iew.consumerInst                  34970247                       # Number of instructions consuming a value (Count)
system.cpu.iew.wbRate                        2.946669                       # Insts written-back per cycle ((Count/Cycle))
system.cpu.iew.wbFanout                      0.660618                       # Average fanout of values written-back ((Count/Count))
system.cpu.lsq0.forwLoads                       25458                       # Number of loads that had data forwarded from stores (Count)
system.cpu.lsq0.squashedLoads                  112890                       # Number of loads squashed (Count)
system.cpu.lsq0.ignoredResponses                   41                       # Number of memory responses ignored because the instruction is squashed (Count)
system.cpu.lsq0.memOrderViolation                  98                       # Number of memory ordering violations (Count)
system.cpu.lsq0.squashedStores                  37312                       # Number of stores squashed (Count)
system.cpu.lsq0.rescheduledLoads                 9307                       # Number of loads that were rescheduled (Count)
system.cpu.lsq0.blockedByCache                   3540                       # Number of times an access to memory failed due to the cache being blocked (Count)
system.cpu.lsq0.loadToUse::samples            3047547                       # Distribution of cycle latency between the first time a load is issued and its completion (Unspecified)
system.cpu.lsq0.loadToUse::mean              6.985619                       # Distribution of cycle latency between the first time a load is issued and its completion (Unspecified)
system.cpu.lsq0.loadToUse::stdev            27.948863                       # Distribution of cycle latency between the first time a load is issued and its completion (Unspecified)
system.cpu.lsq0.loadToUse::0-9                2972118     97.52%     97.52% # Distribution of cycle latency between the first time a load is issued and its completion (Unspecified)
system.cpu.lsq0.loadToUse::10-19                 5237      0.17%     97.70% # Distribution of cycle latency between the first time a load is issued and its completion (Unspecified)
system.cpu.lsq0.loadToUse::20-29                 9166      0.30%     98.00% # Distribution of cycle latency between the first time a load is issued and its completion (Unspecified)
system.cpu.lsq0.loadToUse::30-39                 2283      0.07%     98.07% # Distribution of cycle latency between the first time a load is issued and its completion (Unspecified)
system.cpu.lsq0.loadToUse::40-49                 1194      0.04%     98.11% # Distribution of cycle latency between the first time a load is issued and its completion (Unspecified)
[...]
system.mem_ctrls.dram.perBankWrBursts::10         3574                       # Per bank write bursts (Count)
system.mem_ctrls.dram.perBankWrBursts::11         2533                       # Per bank write bursts (Count)
system.mem_ctrls.dram.perBankWrBursts::12         3580                       # Per bank write bursts (Count)
system.mem_ctrls.dram.perBankWrBursts::13         4131                       # Per bank write bursts (Count)
system.mem_ctrls.dram.perBankWrBursts::14         3490                       # Per bank write bursts (Count)
system.mem_ctrls.dram.perBankWrBursts::15         3673                       # Per bank write bursts (Count)
system.mem_ctrls.dram.totQLat              1127863000                       # Total ticks spent queuing (Tick)
system.mem_ctrls.dram.totBusLat             387660000                       # Total ticks spent in databus transfers (Tick)
system.mem_ctrls.dram.totMemAccLat         2581588000                       # Total ticks spent from burst creation until serviced by the DRAM (Tick)
system.mem_ctrls.dram.avgQLat                14547.06                       # Average queueing delay per DRAM burst ((Tick/Count))
system.mem_ctrls.dram.avgBusLat               5000.00                       # Average bus latency per DRAM burst ((Tick/Count))
system.mem_ctrls.dram.avgMemAccLat           33297.06                       # Average memory access latency per DRAM burst ((Tick/Count))
system.mem_ctrls.dram.readRowHits               66780                       # Number of row buffer hits during reads (Count)
system.mem_ctrls.dram.writeRowHits              50510                       # Number of row buffer hits during writes (Count)
system.mem_ctrls.dram.readRowHitRate            86.13                       # Row buffer hit rate for reads (Ratio)
system.mem_ctrls.dram.writeRowHitRate           89.00                       # Row buffer hit rate for writes (Ratio)
system.mem_ctrls.dram.bytesPerActivate::samples        16979                       # Bytes accessed per row activation (Byte)
system.mem_ctrls.dram.bytesPerActivate::mean   505.953943                       # Bytes accessed per row activation (Byte)
system.mem_ctrls.dram.bytesPerActivate::gmean   325.980726                       # Bytes accessed per row activation (Byte)
system.mem_ctrls.dram.bytesPerActivate::stdev   385.121845                       # Bytes accessed per row activation (Byte)
system.mem_ctrls.dram.bytesPerActivate::0-127         3188     18.78%     18.78% # Bytes accessed per row activation (Byte)
system.mem_ctrls.dram.bytesPerActivate::128-255         3175     18.70%     37.48% # Bytes accessed per row activation (Byte)
system.mem_ctrls.dram.bytesPerActivate::256-383         1700     10.01%     47.49% # Bytes accessed per row activation (Byte)
system.mem_ctrls.dram.bytesPerActivate::384-511         1120      6.60%     54.08% # Bytes accessed per row activation (Byte)
system.mem_ctrls.dram.bytesPerActivate::512-639          824      4.85%     58.94% # Bytes accessed per row activation (Byte)
system.mem_ctrls.dram.bytesPerActivate::640-767          947      5.58%     64.51% # Bytes accessed per row activation (Byte)
system.mem_ctrls.dram.bytesPerActivate::768-895          760      4.48%     68.99% # Bytes accessed per row activation (Byte)
system.mem_ctrls.dram.bytesPerActivate::896-1023         1198      7.06%     76.05% # Bytes accessed per row activation (Byte)
system.mem_ctrls.dram.bytesPerActivate::1024-1151         4067     23.95%    100.00% # Bytes accessed per row activation (Byte)
system.mem_ctrls.dram.bytesPerActivate::total        16979                       # Bytes accessed per row activation (Byte)
system.mem_ctrls.dram.bytesRead               4962048                       # Total bytes read (Byte)
system.mem_ctrls.dram.bytesWritten            3632192                       # Total bytes written (Byte)
system.mem_ctrls.dram.avgRdBW              904.596278                       # Average DRAM read bandwidth in MiBytes/s ((Byte/Second))
system.mem_ctrls.dram.avgWrBW              662.159529                       # Average DRAM write bandwidth in MiBytes/s ((Byte/Second))
system.mem_ctrls.dram.peakBW                 12800.00                       # Theoretical peak bandwidth in MiByte/s ((Byte/Second))
system.mem_ctrls.dram.busUtil                   12.24                       # Data bus utilization in percentage (Ratio)
system.mem_ctrls.dram.busUtilRead                7.07                       # Data bus utilization in percentage for reads (Ratio)
system.mem_ctrls.dram.busUtilWrite               5.17                       # Data bus utilization in percentage for writes (Ratio)
system.mem_ctrls.dram.pageHitRate               87.34                       # Row buffer hit rate, read and write combined (Ratio)
system.mem_ctrls.dram.power_state.pwrStateResidencyTicks::UNDEFINED   5485373000                       # Cumulative time (in ticks) in various power states (Tick)
system.mem_ctrls.dram.rank0.actEnergy        61132680                       # Energy for activate commands per rank (pJ) (Joule)
system.mem_ctrls.dram.rank0.preEnergy        32462430                       # Energy for precharge commands per rank (pJ) (Joule)
system.mem_ctrls.dram.rank0.readEnergy      284536140                       # Energy for read commands per rank (pJ) (Joule)
system.mem_ctrls.dram.rank0.writeEnergy     152335260                       # Energy for write commands per rank (pJ) (Joule)
system.mem_ctrls.dram.rank0.refreshEnergy 432706560.000000                       # Energy for refresh commands per rank (pJ) (Joule)
system.mem_ctrls.dram.rank0.actBackEnergy   2186420250                       # Energy for active background per rank (pJ) (Joule)
system.mem_ctrls.dram.rank0.preBackEnergy    265187520                       # Energy for precharge background per rank (pJ) (Joule)
system.mem_ctrls.dram.rank0.actPowerDownEnergy            0                       # Energy for active power-down per rank (pJ) (Joule)
system.mem_ctrls.dram.rank0.prePowerDownEnergy            0                       # Energy for precharge power-down per rank (pJ) (Joule)
system.mem_ctrls.dram.rank0.selfRefreshEnergy            0                       # Energy for self refresh per rank (pJ) (Joule)
system.mem_ctrls.dram.rank0.totalEnergy    3414780840                       # Total energy per rank (pJ) (Joule)
system.mem_ctrls.dram.rank0.averagePower   622.524820                       # Core power per rank (mW) (Watt)
system.mem_ctrls.dram.rank0.totalIdleTime            0                       # Total Idle time Per DRAM Rank (Tick)
system.mem_ctrls.dram.rank0.pwrStateTime::IDLE    663816500                       # Time in different power states (Tick)
system.mem_ctrls.dram.rank0.pwrStateTime::REF    183040000                       # Time in different power states (Tick)
system.mem_ctrls.dram.rank0.pwrStateTime::SREF            0                       # Time in different power states (Tick)
system.mem_ctrls.dram.rank0.pwrStateTime::PRE_PDN            0                       # Time in different power states (Tick)
system.mem_ctrls.dram.rank0.pwrStateTime::ACT   4638516500                       # Time in different power states (Tick)
system.mem_ctrls.dram.rank0.pwrStateTime::ACT_PDN            0                       # Time in different power states (Tick)
system.mem_ctrls.dram.rank1.actEnergy        60211620                       # Energy for activate commands per rank (pJ) (Joule)
system.mem_ctrls.dram.rank1.preEnergy        31972875                       # Energy for precharge commands per rank (pJ) (Joule)
system.mem_ctrls.dram.rank1.readEnergy      269042340                       # Energy for read commands per rank (pJ) (Joule)
system.mem_ctrls.dram.rank1.writeEnergy     143915400                       # Energy for write commands per rank (pJ) (Joule)
system.mem_ctrls.dram.rank1.refreshEnergy 432706560.000000                       # Energy for refresh commands per rank (pJ) (Joule)
system.mem_ctrls.dram.rank1.actBackEnergy   2108778840                       # Energy for active background per rank (pJ) (Joule)
system.mem_ctrls.dram.rank1.preBackEnergy    330569760                       # Energy for precharge background per rank (pJ) (Joule)
system.mem_ctrls.dram.rank1.actPowerDownEnergy            0                       # Energy for active power-down per rank (pJ) (Joule)
system.mem_ctrls.dram.rank1.prePowerDownEnergy            0                       # Energy for precharge power-down per rank (pJ) (Joule)
system.mem_ctrls.dram.rank1.selfRefreshEnergy            0                       # Energy for self refresh per rank (pJ) (Joule)
system.mem_ctrls.dram.rank1.totalEnergy    3377197395                       # Total energy per rank (pJ) (Joule)
system.mem_ctrls.dram.rank1.averagePower   615.673245                       # Core power per rank (mW) (Watt)
system.mem_ctrls.dram.rank1.totalIdleTime            0                       # Total Idle time Per DRAM Rank (Tick)
system.mem_ctrls.dram.rank1.pwrStateTime::IDLE    833951750                       # Time in different power states (Tick)
system.mem_ctrls.dram.rank1.pwrStateTime::REF    183040000                       # Time in different power states (Tick)
system.mem_ctrls.dram.rank1.pwrStateTime::SREF            0                       # Time in different power states (Tick)
system.mem_ctrls.dram.rank1.pwrStateTime::PRE_PDN            0                       # Time in different power states (Tick)
system.mem_ctrls.dram.rank1.pwrStateTime::ACT   4468381250                       # Time in different power states (Tick)
system.mem_ctrls.dram.rank1.pwrStateTime::ACT_PDN            0                       # Time in different power states (Tick)
system.mem_ctrls.power_state.pwrStateResidencyTicks::UNDEFINED   5485373000                       # Cumulative time (in ticks) in various power states (Tick)
system.membus.transDist::ReadResp               18465                       # Transaction distribution (Count)
system.membus.transDist::WritebackDirty         56781                       # Transaction distribution (Count)
system.membus.transDist::CleanEvict             16731                       # Transaction distribution (Count)
system.membus.transDist::ReadExReq              59086                       # Transaction distribution (Count)
system.membus.transDist::ReadExResp             59086                       # Transaction distribution (Count)
system.membus.transDist::ReadSharedReq          18465                       # Transaction distribution (Count)
system.membus.transDist::InvalidateReq            144                       # Transaction distribution (Count)
system.membus.pktCount_system.l2.mem_side_port::system.mem_ctrls.port       228758                       # Packet count per connected requestor and responder (Count)
system.membus.pktCount::total                  228758                       # Packet count per connected requestor and responder (Count)
system.membus.pktSize_system.l2.mem_side_port::system.mem_ctrls.port      8597248                       # Cumulative packet size per connected requestor and responder (Byte)
system.membus.pktSize::total                  8597248                       # Cumulative packet size per connected requestor and responder (Byte)
system.membus.snoops                                0                       # Total snoops (Count)
system.membus.snoopTraffic                          0                       # Total snoop traffic (Byte)
system.membus.snoopFanout::samples              77695                       # Request fanout histogram (Count)
system.membus.snoopFanout::mean                     0                       # Request fanout histogram (Count)
system.membus.snoopFanout::stdev                    0                       # Request fanout histogram (Count)
system.membus.snoopFanout::underflows               0      0.00%      0.00% # Request fanout histogram (Count)
system.membus.snoopFanout::0                    77695    100.00%    100.00% # Request fanout histogram (Count)
system.membus.snoopFanout::1                        0      0.00%    100.00% # Request fanout histogram (Count)
system.membus.snoopFanout::overflows                0      0.00%    100.00% # Request fanout histogram (Count)
system.membus.snoopFanout::min_value                0                       # Request fanout histogram (Count)
system.membus.snoopFanout::max_value                0                       # Request fanout histogram (Count)
system.membus.snoopFanout::total                77695                       # Request fanout histogram (Count)
system.membus.power_state.pwrStateResidencyTicks::UNDEFINED   5485373000                       # Cumulative time (in ticks) in various power states (Tick)
system.membus.reqLayer0.occupancy           403027500                       # Layer occupancy (ticks) (Tick)
system.membus.reqLayer0.utilization               0.1                       # Layer utilization (Ratio)
system.membus.respLayer1.occupancy          409044000                       # Layer occupancy (ticks) (Tick)
system.membus.respLayer1.utilization              0.1                       # Layer utilization (Ratio)
system.membus.snoop_filter.totRequests         151207                       # Total number of requests made to the snoop filter. (Count)
system.membus.snoop_filter.hitSingleRequests        73512                       # Number of requests hitting in the snoop filter with a single holder of the requested data. (Count)
system.membus.snoop_filter.hitMultiRequests            0                       # Number of requests hitting in the snoop filter with multiple (>1) holders of the requested data. (Count)
system.membus.snoop_filter.totSnoops                0                       # Total number of snoops made to the snoop filter. (Count)
system.membus.snoop_filter.hitSingleSnoops            0                       # Number of snoops hitting in the snoop filter with a single holder of the requested data. (Count)
system.membus.snoop_filter.hitMultiSnoops            0                       # Number of snoops hitting in the snoop filter with multiple (>1) holders of the requested data. (Count)
system.tol2bus.transDist::ReadResp              23435                       # Transaction distribution (Count)
system.tol2bus.transDist::WritebackDirty       116997                       # Transaction distribution (Count)
system.tol2bus.transDist::WritebackClean         1893                       # Transaction distribution (Count)
system.tol2bus.transDist::CleanEvict            37275                       # Transaction distribution (Count)
system.tol2bus.transDist::ReadExReq             59724                       # Transaction distribution (Count)
system.tol2bus.transDist::ReadExResp            59724                       # Transaction distribution (Count)
system.tol2bus.transDist::ReadCleanReq           2150                       # Transaction distribution (Count)
system.tol2bus.transDist::ReadSharedReq         21286                       # Transaction distribution (Count)
system.tol2bus.transDist::InvalidateReq           145                       # Transaction distribution (Count)
system.tol2bus.transDist::InvalidateResp          145                       # Transaction distribution (Count)
system.tol2bus.pktCount_system.cpu.icache.mem_side_port::system.l2.cpu_side_port         6192                       # Packet count per connected requestor and responder (Count)
system.tol2bus.pktCount_system.cpu.dcache.mem_side_port::system.l2.cpu_side_port       242441                       # Packet count per connected requestor and responder (Count)
system.tol2bus.pktCount::total                 248633                       # Packet count per connected requestor and responder (Count)
system.tol2bus.pktSize_system.cpu.icache.mem_side_port::system.l2.cpu_side_port       258688                       # Cumulative packet size per connected requestor and responder (Byte)
system.tol2bus.pktSize_system.cpu.dcache.mem_side_port::system.l2.cpu_side_port      9038464                       # Cumulative packet size per connected requestor and responder (Byte)
system.tol2bus.pktSize::total                 9297152                       # Cumulative packet size per connected requestor and responder (Byte)
system.tol2bus.snoops                           74141                       # Total snoops (Count)
system.tol2bus.snoopTraffic                   3633984                       # Total snoop traffic (Byte)
system.tol2bus.snoopFanout::samples            157446                       # Request fanout histogram (Count)
system.tol2bus.snoopFanout::mean             0.005234                       # Request fanout histogram (Count)
system.tol2bus.snoopFanout::stdev            0.072154                       # Request fanout histogram (Count)
system.tol2bus.snoopFanout::underflows              0      0.00%      0.00% # Request fanout histogram (Count)
system.tol2bus.snoopFanout::0                  156622     99.48%     99.48% # Request fanout histogram (Count)
system.tol2bus.snoopFanout::1                     824      0.52%    100.00% # Request fanout histogram (Count)
system.tol2bus.snoopFanout::2                       0      0.00%    100.00% # Request fanout histogram (Count)
system.tol2bus.snoopFanout::overflows               0      0.00%    100.00% # Request fanout histogram (Count)
system.tol2bus.snoopFanout::min_value               0                       # Request fanout histogram (Count)
system.tol2bus.snoopFanout::max_value               1                       # Request fanout histogram (Count)
system.tol2bus.snoopFanout::total              157446                       # Request fanout histogram (Count)
system.tol2bus.power_state.pwrStateResidencyTicks::UNDEFINED   5485373000                       # Cumulative time (in ticks) in various power states (Tick)
system.tol2bus.reqLayer0.occupancy          144773500                       # Layer occupancy (ticks) (Tick)
system.tol2bus.reqLayer0.utilization              0.0                       # Layer utilization (Ratio)
system.tol2bus.respLayer0.occupancy           3223999                       # Layer occupancy (ticks) (Tick)
system.tol2bus.respLayer0.utilization             0.0                       # Layer utilization (Ratio)
system.tol2bus.respLayer1.occupancy         121587500                       # Layer occupancy (ticks) (Tick)
system.tol2bus.respLayer1.utilization             0.0                       # Layer utilization (Ratio)
system.tol2bus.snoop_filter.totRequests        165329                       # Total number of requests made to the snoop filter. (Count)
system.tol2bus.snoop_filter.hitSingleRequests        82024                       # Number of requests hitting in the snoop filter with a single holder of the requested data. (Count)
system.tol2bus.snoop_filter.hitMultiRequests            1                       # Number of requests hitting in the snoop filter with multiple (>1) holders of the requested data. (Count)
system.tol2bus.snoop_filter.totSnoops             823                       # Total number of snoops made to the snoop filter. (Count)
system.tol2bus.snoop_filter.hitSingleSnoops          823                       # Number of snoops hitting in the snoop filter with a single holder of the requested data. (Count)
system.tol2bus.snoop_filter.hitMultiSnoops            0                       # Number of snoops hitting in the snoop filter with multiple (>1) holders of the requested data. (Count)
system.voltage_domain.voltage                       1                       # Voltage in Volts (Volt)
system.workload.inst.arm                            0                       # number of arm instructions executed (Count)
system.workload.inst.quiesce                        0                       # number of quiesce instructions executed (Count)

---------- End Simulation Statistics   ----------
