
---------- Begin Simulation Statistics ----------
simSeconds                                   0.004248                       # Number of seconds simulated (Second)
simTicks                                   4247789000                       # Number of ticks simulated (Tick)
finalTick                                  5246207000                       # Number of ticks from beginning of simulation (restored from checkpoints and never reset) (Tick)
simFreq                                  1000000000000                       # The number of ticks per simulated second ((Tick/Second))
hostSeconds                                     38.83                       # Real time elapsed on the host (Second)
hostTickRate                                109381245                       # The number of ticks simulated per host second (ticks/s) ((Tick/Second))
hostMemory                                     681156                       # Number of bytes of host memory used (Byte)
simInsts                                     11238541                       # Number of instructions simulated (Count)
simOps                                       14277715                       # Number of ops (including micro ops) simulated (Count)
hostInstRate                                   289393                       # Simulator instruction rate (inst/s) ((Count/Second))
hostOpRate                                     367652                       # Simulator op (including micro ops) rate (op/s) ((Count/Second))
system.clk_domain.clock                          1000                       # Clock period in ticks (Tick)
system.cpu.numCycles                          8495578                       # Number of cpu cycles simulated (Cycle)
system.cpu.numWorkItemsStarted                      0                       # Number of work items this cpu started (Count)
system.cpu.numWorkItemsCompleted                    0                       # Number of work items this cpu completed (Count)
system.cpu.instsAdded                        12398531                       # Number of instructions added to the IQ (excludes non-spec) (Count)
system.cpu.nonSpecInstsAdded                      236                       # Number of non-speculative instructions added to the IQ (Count)
system.cpu.instsIssued                       12382118                       # Number of instructions issued (Count)
system.cpu.squashedInstsIssued                    354                       # Number of squashed instructions issued (Count)
system.cpu.squashedInstsExamined                47974                       # Number of squashed instructions iterated over during squash; mainly for profiling (Count)
system.cpu.squashedOperandsExamined             67000                       # Number of squashed operands that are examined and possibly removed from graph (Count)
system.cpu.squashedNonSpecRemoved                  91                       # Number of squashed non-spec instructions that were removed (Count)
system.cpu.numIssuedDist::samples             8472578                       # Number of insts issued each cycle (Count)
system.cpu.numIssuedDist::mean               1.461435                       # Number of insts issued each cycle (Count)
system.cpu.numIssuedDist::stdev              2.616649                       # Number of insts issued each cycle (Count)
system.cpu.numIssuedDist::underflows                0      0.00%      0.00% # Number of insts issued each cycle (Count)
system.cpu.numIssuedDist::0                   6001100     70.83%     70.83% # Number of insts issued each cycle (Count)
system.cpu.numIssuedDist::1                    303155      3.58%     74.41% # Number of insts issued each cycle (Count)
system.cpu.numIssuedDist::2                    230361      2.72%     77.13% # Number of insts issued each cycle (Count)
system.cpu.numIssuedDist::3                    181310      2.14%     79.27% # Number of insts issued each cycle (Count)
system.cpu.numIssuedDist::4                    233639      2.76%     82.02% # Number of insts issued each cycle (Count)
system.cpu.numIssuedDist::5                    302594      3.57%     85.60% # Number of insts issued each cycle (Count)
system.cpu.numIssuedDist::6                    444188      5.24%     90.84% # Number of insts issued each cycle (Count)
system.cpu.numIssuedDist::7                    248191      2.93%     93.77% # Number of insts issued each cycle (Count)
system.cpu.numIssuedDist::8                    528040      6.23%    100.00% # Number of insts issued each cycle (Count)
system.cpu.numIssuedDist::overflows                 0      0.00%    100.00% # Number of insts issued each cycle (Count)
system.cpu.numIssuedDist::min_value                 0                       # Number of insts issued each cycle (Count)
system.cpu.numIssuedDist::max_value                 8                       # Number of insts issued each cycle (Count)
system.cpu.numIssuedDist::total               8472578                       # Number of insts issued each cycle (Count)
system.cpu.statFuBusy::No_OpClass                   0      0.00%      0.00% # attempts to use FU when none available (Count)
system.cpu.statFuBusy::IntAlu                     113      0.01%      0.01% # attempts to use FU when none available (Count)
system.cpu.statFuBusy::IntMult                      0      0.00%      0.01% # attempts to use FU when none available (Count)
system.cpu.statFuBusy::IntDiv                       0      0.00%      0.01% # attempts to use FU when none available (Count)
system.cpu.statFuBusy::FloatAdd                     0      0.00%      0.01% # attempts to use FU when none available (Count)
system.cpu.statFuBusy::FloatCmp                     0      0.00%      0.01% # attempts to use FU when none available (Count)
system.cpu.statFuBusy::FloatCvt                     0      0.00%      0.01% # attempts to use FU when none available (Count)
system.cpu.statFuBusy::FloatMult                    0      0.00%      0.01% # attempts to use FU when none available (Count)
system.cpu.statFuBusy::FloatMultAcc                 0      0.00%      0.01% # attempts to use FU when none available (Count)
system.cpu.statFuBusy::FloatDiv                     0      0.00%      0.01% # attempts to use FU when none available (Count)
system.cpu.statFuBusy::FloatMisc                    0      0.00%      0.01% # attempts to use FU when none available (Count)
system.cpu.statFuBusy::FloatSqrt                    0      0.00%      0.01% # attempts to use FU when none available (Count)
system.cpu.statFuBusy::SimdAdd                 631965     34.83%     34.84% # attempts to use FU when none available (Count)
system.cpu.statFuBusy::SimdAddAcc                   0      0.00%     34.84% # attempts to use FU when none available (Count)
system.cpu.statFuBusy::SimdAlu                   8545      0.47%     35.31% # attempts to use FU when none available (Count)
system.cpu.statFuBusy::SimdCmp                      0      0.00%     35.31% # attempts to use FU when none available (Count)
system.cpu.statFuBusy::SimdCvt                      0      0.00%     35.31% # attempts to use FU when none available (Count)
system.cpu.statFuBusy::SimdMisc                341634     18.83%     54.14% # attempts to use FU when none available (Count)
system.cpu.statFuBusy::SimdMult                715093     39.41%     93.55% # attempts to use FU when none available (Count)
system.cpu.statFuBusy::SimdMultAcc                  2      0.00%     93.55% # attempts to use FU when none available (Count)
system.cpu.statFuBusy::SimdShift                    0      0.00%     93.55% # attempts to use FU when none available (Count)
system.cpu.statFuBusy::SimdShiftAcc                 0      0.00%     93.55% # attempts to use FU when none available (Count)
system.cpu.statFuBusy::SimdDiv                      0      0.00%     93.55% # attempts to use FU when none available (Count)
system.cpu.statFuBusy::SimdSqrt                     0      0.00%     93.55% # attempts to use FU when none available (Count)
system.cpu.statFuBusy::SimdFloatAdd                 0      0.00%     93.55% # attempts to use FU when none available (Count)
system.cpu.statFuBusy::SimdFloatAlu                 0      0.00%     93.55% # attempts to use FU when none available (Count)
system.cpu.statFuBusy::SimdFloatCmp                 0      0.00%     93.55% # attempts to use FU when none available (Count)
system.cpu.statFuBusy::SimdFloatCvt                 0      0.00%     93.55% # attempts to use FU when none available (Count)
system.cpu.statFuBusy::SimdFloatDiv                 0      0.00%     93.55% # attempts to use FU when none available (Count)
system.cpu.statFuBusy::SimdFloatMisc                0      0.00%     93.55% # attempts to use FU when none available (Count)
system.cpu.statFuBusy::SimdFloatMult                0      0.00%     93.55% # attempts to use FU when none available (Count)
system.cpu.statFuBusy::SimdFloatMultAcc             0      0.00%     93.55% # attempts to use FU when none available (Count)
system.cpu.statFuBusy::SimdFloatSqrt                0      0.00%     93.55% # attempts to use FU when none available (Count)
system.cpu.statFuBusy::SimdReduceAdd                0      0.00%     93.55% # attempts to use FU when none available (Count)
system.cpu.statFuBusy::SimdReduceAlu                0      0.00%     93.55% # attempts to use FU when none available (Count)
system.cpu.statFuBusy::SimdReduceCmp                0      0.00%     93.55% # attempts to use FU when none available (Count)
system.cpu.statFuBusy::SimdFloatReduceAdd            0      0.00%     93.55% # attempts to use FU when none available (Count)
system.cpu.statFuBusy::SimdFloatReduceCmp            0      0.00%     93.55% # attempts to use FU when none available (Count)
system.cpu.statFuBusy::SimdAes                      0      0.00%     93.55% # attempts to use FU when none available (Count)
system.cpu.statFuBusy::SimdAesMix                   0      0.00%     93.55% # attempts to use FU when none available (Count)
system.cpu.statFuBusy::SimdSha1Hash                 0      0.00%     93.55% # attempts to use FU when none available (Count)
system.cpu.statFuBusy::SimdSha1Hash2                0      0.00%     93.55% # attempts to use FU when none available (Count)
system.cpu.statFuBusy::SimdSha256Hash               0      0.00%     93.55% # attempts to use FU when none available (Count)
system.cpu.statFuBusy::SimdSha256Hash2              0      0.00%     93.55% # attempts to use FU when none available (Count)
system.cpu.statFuBusy::SimdShaSigma2                0      0.00%     93.55% # attempts to use FU when none available (Count)
system.cpu.statFuBusy::SimdShaSigma3                0      0.00%     93.55% # attempts to use FU when none available (Count)
system.cpu.statFuBusy::SimdPredAlu                  0      0.00%     93.55% # attempts to use FU when none available (Count)
system.cpu.statFuBusy::MemRead                  81488      4.49%     98.04% # attempts to use FU when none available (Count)
system.cpu.statFuBusy::MemWrite                 35504      1.96%    100.00% # attempts to use FU when none available (Count)
system.cpu.statFuBusy::FloatMemRead                 0      0.00%    100.00% # attempts to use FU when none available (Count)
system.cpu.statFuBusy::FloatMemWrite                0      0.00%    100.00% # attempts to use FU when none available (Count)
system.cpu.statFuBusy::IprAccess                    0      0.00%    100.00% # attempts to use FU when none available (Count)
system.cpu.statFuBusy::InstPrefetch                 0      0.00%    100.00% # attempts to use FU when none available (Count)
system.cpu.statIssuedInstType_0::No_OpClass       992323      8.01%      8.01% # Number of instructions issued per FU type, per thread (Count)
system.cpu.statIssuedInstType_0::IntAlu       2794646     22.57%     30.58% # Number of instructions issued per FU type, per thread (Count)
system.cpu.statIssuedInstType_0::IntMult           30      0.00%     30.58% # Number of instructions issued per FU type, per thread (Count)
system.cpu.statIssuedInstType_0::IntDiv            14      0.00%     30.58% # Number of instructions issued per FU type, per thread (Count)
system.cpu.statIssuedInstType_0::FloatAdd            0      0.00%     30.58% # Number of instructions issued per FU type, per thread (Count)
system.cpu.statIssuedInstType_0::FloatCmp            0      0.00%     30.58% # Number of instructions issued per FU type, per thread (Count)
system.cpu.statIssuedInstType_0::FloatCvt            0      0.00%     30.58% # Number of instructions issued per FU type, per thread (Count)
system.cpu.statIssuedInstType_0::FloatMult            0      0.00%     30.58% # Number of instructions issued per FU type, per thread (Count)
system.cpu.statIssuedInstType_0::FloatMultAcc            0      0.00%     30.58% # Number of instructions issued per FU type, per thread (Count)
system.cpu.statIssuedInstType_0::FloatDiv            0      0.00%     30.58% # Number of instructions issued per FU type, per thread (Count)
system.cpu.statIssuedInstType_0::FloatMisc            0      0.00%     30.58% # Number of instructions issued per FU type, per thread (Count)
system.cpu.statIssuedInstType_0::FloatSqrt            0      0.00%     30.58% # Number of instructions issued per FU type, per thread (Count)
system.cpu.statIssuedInstType_0::SimdAdd      1908511     15.41%     46.00% # Number of instructions issued per FU type, per thread (Count)
system.cpu.statIssuedInstType_0::SimdAddAcc            0      0.00%     46.00% # Number of instructions issued per FU type, per thread (Count)
system.cpu.statIssuedInstType_0::SimdAlu       221748      1.79%     47.79% # Number of instructions issued per FU type, per thread (Count)
system.cpu.statIssuedInstType_0::SimdCmp            0      0.00%     47.79% # Number of instructions issued per FU type, per thread (Count)
system.cpu.statIssuedInstType_0::SimdCvt            0      0.00%     47.79% # Number of instructions issued per FU type, per thread (Count)
system.cpu.statIssuedInstType_0::SimdMisc      1703940     13.76%     61.55% # Number of instructions issued per FU type, per thread (Count)
system.cpu.statIssuedInstType_0::SimdMult      1636096     13.21%     74.76% # Number of instructions issued per FU type, per thread (Count)
system.cpu.statIssuedInstType_0::SimdMultAcc        68096      0.55%     75.31% # Number of instructions issued per FU type, per thread (Count)
system.cpu.statIssuedInstType_0::SimdShift            0      0.00%     75.31% # Number of instructions issued per FU type, per thread (Count)
system.cpu.statIssuedInstType_0::SimdShiftAcc            0      0.00%     75.31% # Number of instructions issued per FU type, per thread (Count)
system.cpu.statIssuedInstType_0::SimdDiv            0      0.00%     75.31% # Number of instructions issued per FU type, per thread (Count)
system.cpu.statIssuedInstType_0::SimdSqrt            0      0.00%     75.31% # Number of instructions issued per FU type, per thread (Count)
system.cpu.statIssuedInstType_0::SimdFloatAdd            0      0.00%     75.31% # Number of instructions issued per FU type, per thread (Count)
system.cpu.statIssuedInstType_0::SimdFloatAlu            0      0.00%     75.31% # Number of instructions issued per FU type, per thread (Count)
system.cpu.statIssuedInstType_0::SimdFloatCmp            0      0.00%     75.31% # Number of instructions issued per FU type, per thread (Count)
system.cpu.statIssuedInstType_0::SimdFloatCvt            0      0.00%     75.31% # Number of instructions issued per FU type, per thread (Count)
system.cpu.statIssuedInstType_0::SimdFloatDiv            0      0.00%     75.31% # Number of instructions issued per FU type, per thread (Count)
system.cpu.statIssuedInstType_0::SimdFloatMisc            0      0.00%     75.31% # Number of instructions issued per FU type, per thread (Count)
system.cpu.statIssuedInstType_0::SimdFloatMult            0      0.00%     75.31% # Number of instructions issued per FU type, per thread (Count)
system.cpu.statIssuedInstType_0::SimdFloatMultAcc            0      0.00%     75.31% # Number of instructions issued per FU type, per thread (Count)
system.cpu.statIssuedInstType_0::SimdFloatSqrt            0      0.00%     75.31% # Number of instructions issued per FU type, per thread (Count)
system.cpu.statIssuedInstType_0::SimdReduceAdd            0      0.00%     75.31% # Number of instructions issued per FU type, per thread (Count)
system.cpu.statIssuedInstType_0::SimdReduceAlu            0      0.00%     75.31% # Number of instructions issued per FU type, per thread (Count)
system.cpu.statIssuedInstType_0::SimdReduceCmp            0      0.00%     75.31% # Number of instructions issued per FU type, per thread (Count)
system.cpu.statIssuedInstType_0::SimdFloatReduceAdd            0      0.00%     75.31% # Number of instructions issued per FU type, per thread (Count)
system.cpu.statIssuedInstType_0::SimdFloatReduceCmp            0      0.00%     75.31% # Number of instructions issued per FU type, per thread (Count)
system.cpu.statIssuedInstType_0::SimdAes            0      0.00%     75.31% # Number of instructions issued per FU type, per thread (Count)
system.cpu.statIssuedInstType_0::SimdAesMix            0      0.00%     75.31% # Number of instructions issued per FU type, per thread (Count)
system.cpu.statIssuedInstType_0::SimdSha1Hash            0      0.00%     75.31% # Number of instructions issued per FU type, per thread (Count)
system.cpu.statIssuedInstType_0::SimdSha1Hash2            0      0.00%     75.31% # Number of instructions issued per FU type, per thread (Count)
system.cpu.statIssuedInstType_0::SimdSha256Hash            0      0.00%     75.31% # Number of instructions issued per FU type, per thread (Count)
system.cpu.statIssuedInstType_0::SimdSha256Hash2            0      0.00%     75.31% # Number of instructions issued per FU type, per thread (Count)
system.cpu.statIssuedInstType_0::SimdShaSigma2            0      0.00%     75.31% # Number of instructions issued per FU type, per thread (Count)
system.cpu.statIssuedInstType_0::SimdShaSigma3            0      0.00%     75.31% # Number of instructions issued per FU type, per thread (Count)
system.cpu.statIssuedInstType_0::SimdPredAlu            0      0.00%     75.31% # Number of instructions issued per FU type, per thread (Count)
system.cpu.statIssuedInstType_0::MemRead      2341646     18.91%     94.22% # Number of instructions issued per FU type, per thread (Count)
system.cpu.statIssuedInstType_0::MemWrite       715068      5.78%    100.00% # Number of instructions issued per FU type, per thread (Count)
system.cpu.statIssuedInstType_0::FloatMemRead            0      0.00%    100.00% # Number of instructions issued per FU type, per thread (Count)
system.cpu.statIssuedInstType_0::FloatMemWrite            0      0.00%    100.00% # Number of instructions issued per FU type, per thread (Count)
system.cpu.statIssuedInstType_0::IprAccess            0      0.00%    100.00% # Number of instructions issued per FU type, per thread (Count)
system.cpu.statIssuedInstType_0::InstPrefetch            0      0.00%    100.00% # Number of instructions issued per FU type, per thread (Count)
system.cpu.statIssuedInstType_0::total       12382118                       # Number of instructions issued per FU type, per thread (Count)
system.cpu.issueRate                         1.457478                       # Inst issue rate ((Count/Cycle))
system.cpu.fuBusy                             1814344                       # FU busy when requested (Count)
system.cpu.fuBusyRate                        0.146529                       # FU busy rate (busy events/executed inst) ((Count/Count))
system.cpu.intInstQueueReads                 14494211                       # Number of integer instruction queue reads (Count)
system.cpu.intInstQueueWrites                 3032631                       # Number of integer instruction queue writes (Count)
system.cpu.intInstQueueWakeupAccesses         3008414                       # Number of integer instruction queue wakeup accesses (Count)
system.cpu.fpInstQueueReads                         0                       # Number of floating instruction queue reads (Count)
system.cpu.fpInstQueueWrites                        0                       # Number of floating instruction queue writes (Count)
system.cpu.fpInstQueueWakeupAccesses                0                       # Number of floating instruction queue wakeup accesses (Count)
system.cpu.vecInstQueueReads                 20557301                       # Number of vector instruction queue reads (Count)
system.cpu.vecInstQueueWrites                 9414146                       # Number of vector instruction queue writes (Count)
system.cpu.vecInstQueueWakeupAccesses         9366539                       # Number of vector instruction queue wakeup accesses (Count)
system.cpu.intAluAccesses                     3010537                       # Number of integer alu accesses (Count)
system.cpu.fpAluAccesses                            0                       # Number of floating point alu accesses (Count)
system.cpu.vecAluAccesses                    10193602                       # Number of vector alu accesses (Count)
system.cpu.numInsts                          12379887                       # Number of executed instructions (Count)
system.cpu.numLoadInsts                       2340573                       # Number of load instructions executed (Count)
system.cpu.numSquashedInsts                      2231                       # Number of squashed instructions skipped in execute (Count)
system.cpu.numSwp                                   0                       # Number of swp insts executed (Count)
system.cpu.numNop                                  76                       # Number of nop insts executed (Count)
system.cpu.numRefs                            3055550                       # Number of memory reference insts executed (Count)
system.cpu.numBranches                          20199                       # Number of branches executed (Count)
system.cpu.numStoreInsts                       714977                       # Number of stores executed (Count)
system.cpu.numRate                           1.457215                       # Inst execution rate ((Count/Cycle))
system.cpu.timesIdled                             194                       # Number of times that the entire CPU went into an idle state and unscheduled itself (Count)
system.cpu.idleCycles                           23000                       # Total number of cycles that the CPU has spent unscheduled due to idling (Cycle)
system.cpu.committedInsts                     9580725                       # Number of Instructions Simulated (Count)
system.cpu.committedOps                      12350828                       # Number of Ops (including micro ops) Simulated (Count)
system.cpu.cpi                               0.886736                       # CPI: Cycles Per Instruction ((Cycle/Count))
system.cpu.totalCpi                          0.886736                       # CPI: Total CPI of All Threads ((Cycle/Count))
system.cpu.ipc                               1.127731                       # IPC: Instructions Per Cycle ((Count/Cycle))
system.cpu.totalIpc                          1.127731                       # IPC: Total IPC of All Threads ((Count/Cycle))
system.cpu.intRegfileReads                    8016176                       # Number of integer regfile reads (Count)
system.cpu.intRegfileWrites                   4620715                       # Number of integer regfile writes (Count)
system.cpu.vecRegfileReads                   21076888                       # number of vector regfile reads (Count)
system.cpu.ccRegfileReads                       54882                       # number of cc regfile reads (Count)
system.cpu.ccRegfileWrites                      54954                       # number of cc regfile writes (Count)
system.cpu.miscRegfileReads                  16775426                       # number of misc regfile reads (Count)
system.cpu.miscRegfileWrites                      144                       # number of misc regfile writes (Count)
system.cpu.MemDepUnit__0.insertedLoads        2340861                       # Number of loads inserted to the mem dependence unit. (Count)
system.cpu.MemDepUnit__0.insertedStores        715665                       # Number of stores inserted to the mem dependence unit. (Count)
system.cpu.MemDepUnit__0.conflictingLoads         2096                       # Number of conflicting loads. (Count)
system.cpu.MemDepUnit__0.conflictingStores         2135                       # Number of conflicting stores. (Count)
system.cpu.MemDepUnit__1.insertedLoads              0                       # Number of loads inserted to the mem dependence unit. (Count)
system.cpu.MemDepUnit__1.insertedStores             0                       # Number of stores inserted to the mem dependence unit. (Count)
system.cpu.MemDepUnit__1.conflictingLoads            0                       # Number of conflicting loads. (Count)
system.cpu.MemDepUnit__1.conflictingStores            0                       # Number of conflicting stores. (Count)
system.cpu.MemDepUnit__2.insertedLoads              0                       # Number of loads inserted to the mem dependence unit. (Count)
system.cpu.MemDepUnit__2.insertedStores             0                       # Number of stores inserted to the mem dependence unit. (Count)
system.cpu.MemDepUnit__2.conflictingLoads            0                       # Number of conflicting loads. (Count)
system.cpu.MemDepUnit__2.conflictingStores            0                       # Number of conflicting stores. (Count)
system.cpu.MemDepUnit__3.insertedLoads              0                       # Number of loads inserted to the mem dependence unit. (Count)
system.cpu.MemDepUnit__3.insertedStores             0                       # Number of stores inserted to the mem dependence unit. (Count)
system.cpu.MemDepUnit__3.conflictingLoads            0                       # Number of conflicting loads. (Count)
system.cpu.MemDepUnit__3.conflictingStores            0                       # Number of conflicting stores. (Count)
system.cpu.branchPred.lookups                   22106                       # Number of BP lookups (Count)
system.cpu.branchPred.condPredicted             20613                       # Number of conditional branches predicted (Count)
system.cpu.branchPred.condIncorrect               796                       # Number of conditional branches incorrect (Count)
system.cpu.branchPred.BTBLookups                19170                       # Number of BTB lookups (Count)
system.cpu.branchPred.BTBUpdates                  203                       # Number of BTB updates (Count)
system.cpu.branchPred.BTBHits                   18891                       # Number of BTB hits (Count)
system.cpu.branchPred.BTBHitRatio            0.985446                       # BTB Hit Ratio (Ratio)
system.cpu.branchPred.RASUsed                     374                       # Number of times the RAS was used to get a target. (Count)
system.cpu.branchPred.RASIncorrect                 10                       # Number of incorrect RAS predictions. (Count)
system.cpu.branchPred.indirectLookups             630                       # Number of indirect predictor lookups. (Count)
system.cpu.branchPred.indirectHits                 21                       # Number of indirect target hits. (Count)
system.cpu.branchPred.indirectMisses              609                       # Number of indirect misses. (Count)
system.cpu.branchPred.indirectMispredicted           82                       # Number of mispredicted indirect branches. (Count)
system.cpu.commit.commitSquashedInsts           38530                       # The number of squashed insts skipped by commit (Count)
system.cpu.commit.commitNonSpecStalls             145                       # The number of times commit has been forced to stall to communicate backwards (Count)
system.cpu.commit.branchMispredicts              1149                       # The number of times a branch was mispredicted (Count)
system.cpu.commit.numCommittedDist::samples      8466658                       # Number of insts commited each cycle (Count)
system.cpu.commit.numCommittedDist::mean     1.458763                       # Number of insts commited each cycle (Count)
system.cpu.commit.numCommittedDist::stdev     2.979944                       # Number of insts commited each cycle (Count)
system.cpu.commit.numCommittedDist::underflows            0      0.00%      0.00% # Number of insts commited each cycle (Count)
system.cpu.commit.numCommittedDist::0         6654605     78.60%     78.60% # Number of insts commited each cycle (Count)
system.cpu.commit.numCommittedDist::1          111133      1.31%     79.91% # Number of insts commited each cycle (Count)
system.cpu.commit.numCommittedDist::2          103648      1.22%     81.13% # Number of insts commited each cycle (Count)
system.cpu.commit.numCommittedDist::3            9292      0.11%     81.24% # Number of insts commited each cycle (Count)
system.cpu.commit.numCommittedDist::4           68505      0.81%     82.05% # Number of insts commited each cycle (Count)
system.cpu.commit.numCommittedDist::5           84783      1.00%     83.05% # Number of insts commited each cycle (Count)
system.cpu.commit.numCommittedDist::6           60059      0.71%     83.76% # Number of insts commited each cycle (Count)
system.cpu.commit.numCommittedDist::7           50813      0.60%     84.36% # Number of insts commited each cycle (Count)
system.cpu.commit.numCommittedDist::8         1323820     15.64%    100.00% # Number of insts commited each cycle (Count)
system.cpu.commit.numCommittedDist::overflows            0      0.00%    100.00% # Number of insts commited each cycle (Count)
system.cpu.commit.numCommittedDist::min_value            0                       # Number of insts commited each cycle (Count)
system.cpu.commit.numCommittedDist::max_value            8                       # Number of insts commited each cycle (Count)
system.cpu.commit.numCommittedDist::total      8466658                       # Number of insts commited each cycle (Count)
system.cpu.commit.instsCommitted              9580742                       # Number of instructions committed (Count)
system.cpu.commit.opsCommitted               12350845                       # Number of ops (including micro ops) committed (Count)
system.cpu.commit.memRefs                     3042308                       # Number of memory references committed (Count)
system.cpu.commit.loads                       2328705                       # Number of loads committed (Count)
system.cpu.commit.amos                             72                       # Number of atomic instructions committed (Count)
system.cpu.commit.membars                          72                       # Number of memory barriers committed (Count)
system.cpu.commit.branches                      19475                       # Number of branches committed (Count)
system.cpu.commit.vectorInstructions          9351670                       # Number of committed Vector instructions. (Count)
system.cpu.commit.floating                          0                       # Number of committed floating point instructions. (Count)
system.cpu.commit.integer                     7512805                       # Number of committed integer instructions. (Count)
system.cpu.commit.functionCalls                   186                       # Number of function calls committed. (Count)
system.cpu.commit.committedInstType_0::No_OpClass       989472      8.01%      8.01% # Class of committed instruction (Count)
system.cpu.commit.committedInstType_0::IntAlu      2786186     22.56%     30.57% # Class of committed instruction (Count)
system.cpu.commit.committedInstType_0::IntMult           28      0.00%     30.57% # Class of committed instruction (Count)
system.cpu.commit.committedInstType_0::IntDiv            9      0.00%     30.57% # Class of committed instruction (Count)
system.cpu.commit.committedInstType_0::FloatAdd            0      0.00%     30.57% # Class of committed instruction (Count)
system.cpu.commit.committedInstType_0::FloatCmp            0      0.00%     30.57% # Class of committed instruction (Count)
system.cpu.commit.committedInstType_0::FloatCvt            0      0.00%     30.57% # Class of committed instruction (Count)
system.cpu.commit.committedInstType_0::FloatMult            0      0.00%     30.57% # Class of committed instruction (Count)
system.cpu.commit.committedInstType_0::FloatMultAcc            0      0.00%     30.57% # Class of committed instruction (Count)
system.cpu.commit.committedInstType_0::FloatDiv            0      0.00%     30.57% # Class of committed instruction (Count)
system.cpu.commit.committedInstType_0::FloatMisc            0      0.00%     30.57% # Class of committed instruction (Count)
system.cpu.commit.committedInstType_0::FloatSqrt            0      0.00%     30.57% # Class of committed instruction (Count)
system.cpu.commit.committedInstType_0::SimdAdd      1906688     15.44%     46.01% # Class of committed instruction (Count)
system.cpu.commit.committedInstType_0::SimdAddAcc            0      0.00%     46.01% # Class of committed instruction (Count)
system.cpu.commit.committedInstType_0::SimdAlu       221340      1.79%     47.80% # Class of committed instruction (Count)
system.cpu.commit.committedInstType_0::SimdCmp            0      0.00%     47.80% # Class of committed instruction (Count)
system.cpu.commit.committedInstType_0::SimdCvt            0      0.00%     47.80% # Class of committed instruction (Count)
system.cpu.commit.committedInstType_0::SimdMisc      1702414     13.78%     61.58% # Class of committed instruction (Count)
system.cpu.commit.committedInstType_0::SimdMult      1634304     13.23%     74.82% # Class of committed instruction (Count)
system.cpu.commit.committedInstType_0::SimdMultAcc        68096      0.55%     75.37% # Class of committed instruction (Count)
system.cpu.commit.committedInstType_0::SimdShift            0      0.00%     75.37% # Class of committed instruction (Count)
system.cpu.commit.committedInstType_0::SimdShiftAcc            0      0.00%     75.37% # Class of committed instruction (Count)
system.cpu.commit.committedInstType_0::SimdDiv            0      0.00%     75.37% # Class of committed instruction (Count)
system.cpu.commit.committedInstType_0::SimdSqrt            0      0.00%     75.37% # Class of committed instruction (Count)
system.cpu.commit.committedInstType_0::SimdFloatAdd            0      0.00%     75.37% # Class of committed instruction (Count)
system.cpu.commit.committedInstType_0::SimdFloatAlu            0      0.00%     75.37% # Class of committed instruction (Count)
system.cpu.commit.committedInstType_0::SimdFloatCmp            0      0.00%     75.37% # Class of committed instruction (Count)
system.cpu.commit.committedInstType_0::SimdFloatCvt            0      0.00%     75.37% # Class of committed instruction (Count)
system.cpu.commit.committedInstType_0::SimdFloatDiv            0      0.00%     75.37% # Class of committed instruction (Count)
system.cpu.commit.committedInstType_0::SimdFloatMisc            0      0.00%     75.37% # Class of committed instruction (Count)
system.cpu.commit.committedInstType_0::SimdFloatMult            0      0.00%     75.37% # Class of committed instruction (Count)
system.cpu.commit.committedInstType_0::SimdFloatMultAcc            0      0.00%     75.37% # Class of committed instruction (Count)
system.cpu.commit.committedInstType_0::SimdFloatSqrt            0      0.00%     75.37% # Class of committed instruction (Count)
system.cpu.commit.committedInstType_0::SimdReduceAdd            0      0.00%     75.37% # Class of committed instruction (Count)
system.cpu.commit.committedInstType_0::SimdReduceAlu            0      0.00%     75.37% # Class of committed instruction (Count)
system.cpu.commit.committedInstType_0::SimdReduceCmp            0      0.00%     75.37% # Class of committed instruction (Count)
system.cpu.commit.committedInstType_0::SimdFloatReduceAdd            0      0.00%     75.37% # Class of committed instruction (Count)
system.cpu.commit.committedInstType_0::SimdFloatReduceCmp            0      0.00%     75.37% # Class of committed instruction (Count)
system.cpu.commit.committedInstType_0::SimdAes            0      0.00%     75.37% # Class of committed instruction (Count)
system.cpu.commit.committedInstType_0::SimdAesMix            0      0.00%     75.37% # Class of committed instruction (Count)
system.cpu.commit.committedInstType_0::SimdSha1Hash            0      0.00%     75.37% # Class of committed instruction (Count)
system.cpu.commit.committedInstType_0::SimdSha1Hash2            0      0.00%     75.37% # Class of committed instruction (Count)
system.cpu.commit.committedInstType_0::SimdSha256Hash            0      0.00%     75.37% # Class of committed instruction (Count)
system.cpu.commit.committedInstType_0::SimdSha256Hash2            0      0.00%     75.37% # Class of committed instruction (Count)
system.cpu.commit.committedInstType_0::SimdShaSigma2            0      0.00%     75.37% # Class of committed instruction (Count)
system.cpu.commit.committedInstType_0::SimdShaSigma3            0      0.00%     75.37% # Class of committed instruction (Count)
system.cpu.commit.committedInstType_0::SimdPredAlu            0      0.00%     75.37% # Class of committed instruction (Count)
system.cpu.commit.committedInstType_0::MemRead      2328705     18.85%     94.22% # Class of committed instruction (Count)
system.cpu.commit.committedInstType_0::MemWrite       713603      5.78%    100.00% # Class of committed instruction (Count)
system.cpu.commit.committedInstType_0::FloatMemRead            0      0.00%    100.00% # Class of committed instruction (Count)
system.cpu.commit.committedInstType_0::FloatMemWrite            0      0.00%    100.00% # Class of committed instruction (Count)
system.cpu.commit.committedInstType_0::IprAccess            0      0.00%    100.00% # Class of committed instruction (Count)
system.cpu.commit.committedInstType_0::InstPrefetch            0      0.00%    100.00% # Class of committed instruction (Count)
system.cpu.commit.committedInstType_0::total     12350845                       # Class of committed instruction (Count)
system.cpu.commit.commitEligibleSamples       1323820                       # number cycles where commit BW limit reached (Cycle)
system.cpu.dcache.demandHits::cpu.data        2769689                       # number of demand (read+write) hits (Count)
system.cpu.dcache.demandHits::total           2769689                       # number of demand (read+write) hits (Count)
system.cpu.dcache.overallHits::cpu.data       2769689                       # number of overall hits (Count)
system.cpu.dcache.overallHits::total          2769689                       # number of overall hits (Count)
system.cpu.dcache.demandMisses::cpu.data        93421                       # number of demand (read+write) misses (Count)
system.cpu.dcache.demandMisses::total           93421                       # number of demand (read+write) misses (Count)
system.cpu.dcache.overallMisses::cpu.data        93421                       # number of overall misses (Count)
system.cpu.dcache.overallMisses::total          93421                       # number of overall misses (Count)
system.cpu.dcache.demandMissLatency::cpu.data   7471636000                       # number of demand (read+write) miss ticks (Tick)
system.cpu.dcache.demandMissLatency::total   7471636000                       # number of demand (read+write) miss ticks (Tick)
system.cpu.dcache.overallMissLatency::cpu.data   7471636000                       # number of overall miss ticks (Tick)
system.cpu.dcache.overallMissLatency::total   7471636000                       # number of overall miss ticks (Tick)
system.cpu.dcache.demandAccesses::cpu.data      2863110                       # number of demand (read+write) accesses (Count)
system.cpu.dcache.demandAccesses::total       2863110                       # number of demand (read+write) accesses (Count)
system.cpu.dcache.overallAccesses::cpu.data      2863110                       # number of overall (read+write) accesses (Count)
system.cpu.dcache.overallAccesses::total      2863110                       # number of overall (read+write) accesses (Count)
system.cpu.dcache.demandMissRate::cpu.data     0.032629                       # miss rate for demand accesses (Ratio)
system.cpu.dcache.demandMissRate::total      0.032629                       # miss rate for demand accesses (Ratio)
system.cpu.dcache.overallMissRate::cpu.data     0.032629                       # miss rate for overall accesses (Ratio)
system.cpu.dcache.overallMissRate::total     0.032629                       # miss rate for overall accesses (Ratio)
system.cpu.dcache.demandAvgMissLatency::cpu.data 79978.120551                       # average overall miss latency in ticks ((Tick/Count))
system.cpu.dcache.demandAvgMissLatency::total 79978.120551                       # average overall miss latency in ticks ((Tick/Count))
system.cpu.dcache.overallAvgMissLatency::cpu.data 79978.120551                       # average overall miss latency ((Tick/Count))
system.cpu.dcache.overallAvgMissLatency::total 79978.120551                       # average overall miss latency ((Tick/Count))
system.cpu.dcache.blockedCycles::no_mshrs         5964                       # number of cycles access was blocked (Cycle)
system.cpu.dcache.blockedCycles::no_targets           93                       # number of cycles access was blocked (Cycle)
system.cpu.dcache.blockedCauses::no_mshrs           88                       # number of times access was blocked (Count)
system.cpu.dcache.blockedCauses::no_targets            1                       # number of times access was blocked (Count)
system.cpu.dcache.avgBlocked::no_mshrs      67.772727                       # average number of cycles each access was blocked ((Cycle/Count))
system.cpu.dcache.avgBlocked::no_targets           93                       # average number of cycles each access was blocked ((Cycle/Count))
system.cpu.dcache.writebacks::writebacks        25796                       # number of writebacks (Count)
system.cpu.dcache.writebacks::total             25796                       # number of writebacks (Count)
system.cpu.dcache.demandMshrHits::cpu.data        33701                       # number of demand (read+write) MSHR hits (Count)
system.cpu.dcache.demandMshrHits::total         33701                       # number of demand (read+write) MSHR hits (Count)
system.cpu.dcache.overallMshrHits::cpu.data        33701                       # number of overall MSHR hits (Count)
system.cpu.dcache.overallMshrHits::total        33701                       # number of overall MSHR hits (Count)
system.cpu.dcache.demandMshrMisses::cpu.data        59720                       # number of demand (read+write) MSHR misses (Count)
system.cpu.dcache.demandMshrMisses::total        59720                       # number of demand (read+write) MSHR misses (Count)
system.cpu.dcache.overallMshrMisses::cpu.data        59720                       # number of overall MSHR misses (Count)
system.cpu.dcache.overallMshrMisses::total        59720                       # number of overall MSHR misses (Count)
system.cpu.dcache.demandMshrMissLatency::cpu.data   4751182500                       # number of demand (read+write) MSHR miss ticks (Tick)
system.cpu.dcache.demandMshrMissLatency::total   4751182500                       # number of demand (read+write) MSHR miss ticks (Tick)
system.cpu.dcache.overallMshrMissLatency::cpu.data   4751182500                       # number of overall MSHR miss ticks (Tick)
system.cpu.dcache.overallMshrMissLatency::total   4751182500                       # number of overall MSHR miss ticks (Tick)
system.cpu.dcache.demandMshrMissRate::cpu.data     0.020858                       # mshr miss ratio for demand accesses (Ratio)
system.cpu.dcache.demandMshrMissRate::total     0.020858                       # mshr miss ratio for demand accesses (Ratio)
system.cpu.dcache.overallMshrMissRate::cpu.data     0.020858                       # mshr miss ratio for overall accesses (Ratio)
system.cpu.dcache.overallMshrMissRate::total     0.020858                       # mshr miss ratio for overall accesses (Ratio)
system.cpu.dcache.demandAvgMshrMissLatency::cpu.data 79557.644005                       # average overall mshr miss latency ((Tick/Count))
system.cpu.dcache.demandAvgMshrMissLatency::total 79557.644005                       # average overall mshr miss latency ((Tick/Count))
system.cpu.dcache.overallAvgMshrMissLatency::cpu.data 79557.644005                       # average overall mshr miss latency ((Tick/Count))
system.cpu.dcache.overallAvgMshrMissLatency::total 79557.644005                       # average overall mshr miss latency ((Tick/Count))
system.cpu.dcache.replacements                  59722                       # number of replacements (Count)
system.cpu.dcache.ReadReq.hits::cpu.data      2056164                       # number of ReadReq hits (Count)
system.cpu.dcache.ReadReq.hits::total         2056164                       # number of ReadReq hits (Count)
system.cpu.dcache.ReadReq.misses::cpu.data        93415                       # number of ReadReq misses (Count)
system.cpu.dcache.ReadReq.misses::total         93415                       # number of ReadReq misses (Count)
system.cpu.dcache.ReadReq.missLatency::cpu.data   7470998000                       # number of ReadReq miss ticks (Tick)
system.cpu.dcache.ReadReq.missLatency::total   7470998000                       # number of ReadReq miss ticks (Tick)
system.cpu.dcache.ReadReq.accesses::cpu.data      2149579                       # number of ReadReq accesses(hits+misses) (Count)
system.cpu.dcache.ReadReq.accesses::total      2149579                       # number of ReadReq accesses(hits+misses) (Count)
system.cpu.dcache.ReadReq.missRate::cpu.data     0.043457                       # miss rate for ReadReq accesses (Ratio)
system.cpu.dcache.ReadReq.missRate::total     0.043457                       # miss rate for ReadReq accesses (Ratio)
system.cpu.dcache.ReadReq.avgMissLatency::cpu.data 79976.427769                       # average ReadReq miss latency ((Tick/Count))
system.cpu.dcache.ReadReq.avgMissLatency::total 79976.427769                       # average ReadReq miss latency ((Tick/Count))
system.cpu.dcache.ReadReq.mshrHits::cpu.data        33701                       # number of ReadReq MSHR hits (Count)
system.cpu.dcache.ReadReq.mshrHits::total        33701                       # number of ReadReq MSHR hits (Count)
system.cpu.dcache.ReadReq.mshrMisses::cpu.data        59714                       # number of ReadReq MSHR misses (Count)
system.cpu.dcache.ReadReq.mshrMisses::total        59714                       # number of ReadReq MSHR misses (Count)
system.cpu.dcache.ReadReq.mshrMissLatency::cpu.data   4750550500                       # number of ReadReq MSHR miss ticks (Tick)
system.cpu.dcache.ReadReq.mshrMissLatency::total   4750550500                       # number of ReadReq MSHR miss ticks (Tick)
system.cpu.dcache.ReadReq.mshrMissRate::cpu.data     0.027779                       # mshr miss rate for ReadReq accesses (Ratio)
system.cpu.dcache.ReadReq.mshrMissRate::total     0.027779                       # mshr miss rate for ReadReq accesses (Ratio)
system.cpu.dcache.ReadReq.avgMshrMissLatency::cpu.data 79555.054091                       # average ReadReq mshr miss latency ((Tick/Count))
system.cpu.dcache.ReadReq.avgMshrMissLatency::total 79555.054091                       # average ReadReq mshr miss latency ((Tick/Count))
system.cpu.dcache.SwapReq.hits::cpu.data           70                       # number of SwapReq hits (Count)
system.cpu.dcache.SwapReq.hits::total              70                       # number of SwapReq hits (Count)
system.cpu.dcache.SwapReq.misses::cpu.data            2                       # number of SwapReq misses (Count)
system.cpu.dcache.SwapReq.misses::total             2                       # number of SwapReq misses (Count)
system.cpu.dcache.SwapReq.missLatency::cpu.data       200000                       # number of SwapReq miss ticks (Tick)
system.cpu.dcache.SwapReq.missLatency::total       200000                       # number of SwapReq miss ticks (Tick)
system.cpu.dcache.SwapReq.accesses::cpu.data           72                       # number of SwapReq accesses(hits+misses) (Count)
system.cpu.dcache.SwapReq.accesses::total           72                       # number of SwapReq accesses(hits+misses) (Count)
system.cpu.dcache.SwapReq.missRate::cpu.data     0.027778                       # miss rate for SwapReq accesses (Ratio)
system.cpu.dcache.SwapReq.missRate::total     0.027778                       # miss rate for SwapReq accesses (Ratio)
system.cpu.dcache.SwapReq.avgMissLatency::cpu.data       100000                       # average SwapReq miss latency ((Tick/Count))
system.cpu.dcache.SwapReq.avgMissLatency::total       100000                       # average SwapReq miss latency ((Tick/Count))
system.cpu.dcache.SwapReq.mshrMisses::cpu.data            2                       # number of SwapReq MSHR misses (Count)
system.cpu.dcache.SwapReq.mshrMisses::total            2                       # number of SwapReq MSHR misses (Count)
system.cpu.dcache.SwapReq.mshrMissLatency::cpu.data       198000                       # number of SwapReq MSHR miss ticks (Tick)
system.cpu.dcache.SwapReq.mshrMissLatency::total       198000                       # number of SwapReq MSHR miss ticks (Tick)
system.cpu.dcache.SwapReq.mshrMissRate::cpu.data     0.027778                       # mshr miss rate for SwapReq accesses (Ratio)
system.cpu.dcache.SwapReq.mshrMissRate::total     0.027778                       # mshr miss rate for SwapReq accesses (Ratio)
system.cpu.dcache.SwapReq.avgMshrMissLatency::cpu.data        99000                       # average SwapReq mshr miss latency ((Tick/Count))
system.cpu.dcache.SwapReq.avgMshrMissLatency::total        99000                       # average SwapReq mshr miss latency ((Tick/Count))
system.cpu.dcache.WriteReq.hits::cpu.data       713525                       # number of WriteReq hits (Count)
system.cpu.dcache.WriteReq.hits::total         713525                       # number of WriteReq hits (Count)
system.cpu.dcache.WriteReq.misses::cpu.data            6                       # number of WriteReq misses (Count)
system.cpu.dcache.WriteReq.misses::total            6                       # number of WriteReq misses (Count)
system.cpu.dcache.WriteReq.missLatency::cpu.data       638000                       # number of WriteReq miss ticks (Tick)
system.cpu.dcache.WriteReq.missLatency::total       638000                       # number of WriteReq miss ticks (Tick)
system.cpu.dcache.WriteReq.accesses::cpu.data       713531                       # number of WriteReq accesses(hits+misses) (Count)
system.cpu.dcache.WriteReq.accesses::total       713531                       # number of WriteReq accesses(hits+misses) (Count)
system.cpu.dcache.WriteReq.missRate::cpu.data     0.000008                       # miss rate for WriteReq accesses (Ratio)
system.cpu.dcache.WriteReq.missRate::total     0.000008                       # miss rate for WriteReq accesses (Ratio)
system.cpu.dcache.WriteReq.avgMissLatency::cpu.data 106333.333333                       # average WriteReq miss latency ((Tick/Count))
system.cpu.dcache.WriteReq.avgMissLatency::total 106333.333333                       # average WriteReq miss latency ((Tick/Count))
system.cpu.dcache.WriteReq.mshrMisses::cpu.data            6                       # number of WriteReq MSHR misses (Count)
system.cpu.dcache.WriteReq.mshrMisses::total            6                       # number of WriteReq MSHR misses (Count)
system.cpu.dcache.WriteReq.mshrMissLatency::cpu.data       632000                       # number of WriteReq MSHR miss ticks (Tick)
system.cpu.dcache.WriteReq.mshrMissLatency::total       632000                       # number of WriteReq MSHR miss ticks (Tick)
system.cpu.dcache.WriteReq.mshrMissRate::cpu.data     0.000008                       # mshr miss rate for WriteReq accesses (Ratio)
system.cpu.dcache.WriteReq.mshrMissRate::total     0.000008                       # mshr miss rate for WriteReq accesses (Ratio)
system.cpu.dcache.WriteReq.avgMshrMissLatency::cpu.data 105333.333333                       # average WriteReq mshr miss latency ((Tick/Count))
system.cpu.dcache.WriteReq.avgMshrMissLatency::total 105333.333333                       # average WriteReq mshr miss latency ((Tick/Count))
system.cpu.dcache.power_state.pwrStateResidencyTicks::UNDEFINED   5246207000                       # Cumulative time (in ticks) in various power states (Tick)
system.cpu.dcache.tags.tagsInUse                 1024                       # Average ticks per tags in use ((Tick/Count))
system.cpu.dcache.tags.totalRefs              2885710                       # Total number of references to valid blocks. (Count)
system.cpu.dcache.tags.sampledRefs              60746                       # Sample count of references to valid blocks. (Count)
system.cpu.dcache.tags.avgRefs              47.504527                       # Average number of references to valid blocks. ((Count/Count))
system.cpu.dcache.tags.warmupTick                   0                       # The tick when the warmup percentage was hit. (Tick)
system.cpu.dcache.tags.occupancies::cpu.data         1024                       # Average occupied blocks per tick, per requestor ((Count/Tick))
system.cpu.dcache.tags.avgOccs::cpu.data            1                       # Average percentage of cache occupancy ((Ratio/Tick))
system.cpu.dcache.tags.avgOccs::total               1                       # Average percentage of cache occupancy ((Ratio/Tick))
system.cpu.dcache.tags.occupanciesTaskId::1024         1024                       # Occupied blocks per task id (Count)
system.cpu.dcache.tags.ageTaskId_1024::0           98                       # Occupied blocks per task id, per block age (Count)
system.cpu.dcache.tags.ageTaskId_1024::1          886                       # Occupied blocks per task id, per block age (Count)
system.cpu.dcache.tags.ageTaskId_1024::2            9                       # Occupied blocks per task id, per block age (Count)
system.cpu.dcache.tags.ageTaskId_1024::3           31                       # Occupied blocks per task id, per block age (Count)
system.cpu.dcache.tags.ratioOccsTaskId::1024            1                       # Ratio of occupied blocks and all blocks, per task id (Ratio)
system.cpu.dcache.tags.tagAccesses           11512450                       # Number of tag accesses (Count)
system.cpu.dcache.tags.dataAccesses          11512450                       # Number of data accesses (Count)
system.cpu.dcache.tags.power_state.pwrStateResidencyTicks::UNDEFINED   5246207000                       # Cumulative time (in ticks) in various power states (Tick)
system.cpu.decode.idleCycles                   420131                       # Number of cycles decode is idle (Cycle)
system.cpu.decode.blockedCycles               6350585                       # Number of cycles decode is blocked (Cycle)
system.cpu.decode.runCycles                   1528255                       # Number of cycles decode is running (Cycle)
system.cpu.decode.unblockCycles                172120                       # Number of cycles decode is unblocking (Cycle)
system.cpu.decode.squashCycles                   1487                       # Number of cycles decode is squashing (Cycle)
system.cpu.decode.branchResolved                18795                       # Number of times decode resolved a branch (Count)
system.cpu.decode.branchMispred                    74                       # Number of times decode detected a branch misprediction (Count)
system.cpu.decode.decodedInsts               12409273                       # Number of instructions handled by decode (Count)
system.cpu.decode.squashedInsts                   261                       # Number of squashed instructions handled by decode (Count)
system.cpu.fetch.icacheStallCycles             627410                       # Number of cycles fetch is stalled on an Icache miss (Cycle)
system.cpu.fetch.insts                        9636818                       # Number of instructions fetch has processed (Count)
system.cpu.fetch.branches                       22106                       # Number of branches that fetch encountered (Count)
system.cpu.fetch.predictedBranches              19286                       # Number of branches that fetch has predicted taken (Count)
system.cpu.fetch.cycles                       7840414                       # Number of cycles fetch has run and was not squashing or blocked (Cycle)
system.cpu.fetch.squashCycles                    3116                       # Number of cycles fetch has spent squashing (Cycle)
system.cpu.fetch.miscStallCycles                  430                       # Number of cycles fetch has spent waiting on interrupts, or bad addresses, or out of MSHRs (Cycle)
system.cpu.fetch.pendingTrapStallCycles          2766                       # Number of stall cycles due to pending traps (Cycle)
system.cpu.fetch.cacheLines                    621235                       # Number of cache lines fetched (Count)
system.cpu.fetch.icacheSquashes                   236                       # Number of outstanding Icache misses that were squashed (Count)
system.cpu.fetch.nisnDist::samples            8472578                       # Number of instructions fetched each cycle (Total) (Count)
system.cpu.fetch.nisnDist::mean              1.466615                       # Number of instructions fetched each cycle (Total) (Count)
system.cpu.fetch.nisnDist::stdev             2.988106                       # Number of instructions fetched each cycle (Total) (Count)
system.cpu.fetch.nisnDist::underflows               0      0.00%      0.00% # Number of instructions fetched each cycle (Total) (Count)
system.cpu.fetch.nisnDist::0                  6683398     78.88%     78.88% # Number of instructions fetched each cycle (Total) (Count)
system.cpu.fetch.nisnDist::1                    51748      0.61%     79.49% # Number of instructions fetched each cycle (Total) (Count)
system.cpu.fetch.nisnDist::2                   120775      1.43%     80.92% # Number of instructions fetched each cycle (Total) (Count)
system.cpu.fetch.nisnDist::3                     9406      0.11%     81.03% # Number of instructions fetched each cycle (Total) (Count)
system.cpu.fetch.nisnDist::4                    94374      1.11%     82.14% # Number of instructions fetched each cycle (Total) (Count)
system.cpu.fetch.nisnDist::5                    78819      0.93%     83.07% # Number of instructions fetched each cycle (Total) (Count)
system.cpu.fetch.nisnDist::6                    43849      0.52%     83.59% # Number of instructions fetched each cycle (Total) (Count)
system.cpu.fetch.nisnDist::7                    51867      0.61%     84.20% # Number of instructions fetched each cycle (Total) (Count)
system.cpu.fetch.nisnDist::8                  1338342     15.80%    100.00% # Number of instructions fetched each cycle (Total) (Count)
system.cpu.fetch.nisnDist::overflows                0      0.00%    100.00% # Number of instructions fetched each cycle (Total) (Count)
system.cpu.fetch.nisnDist::min_value                0                       # Number of instructions fetched each cycle (Total) (Count)
system.cpu.fetch.nisnDist::max_value                8                       # Number of instructions fetched each cycle (Total) (Count)
system.cpu.fetch.nisnDist::total              8472578                       # Number of instructions fetched each cycle (Total) (Count)
system.cpu.fetch.branchRate                  0.002602                       # Number of branch fetches per cycle (Ratio)
system.cpu.fetch.rate                        1.134333                       # Number of inst fetches per cycle ((Count/Cycle))
system.cpu.icache.demandHits::cpu.inst         620931                       # number of demand (read+write) hits (Count)
system.cpu.icache.demandHits::total            620931                       # number of demand (read+write) hits (Count)
system.cpu.icache.overallHits::cpu.inst        620931                       # number of overall hits (Count)
system.cpu.icache.overallHits::total           620931                       # number of overall hits (Count)
system.cpu.icache.demandMisses::cpu.inst          304                       # number of demand (read+write) misses (Count)
system.cpu.icache.demandMisses::total             304                       # number of demand (read+write) misses (Count)
system.cpu.icache.overallMisses::cpu.inst          304                       # number of overall misses (Count)
system.cpu.icache.overallMisses::total            304                       # number of overall misses (Count)
system.cpu.icache.demandMissLatency::cpu.inst     23662000                       # number of demand (read+write) miss ticks (Tick)
system.cpu.icache.demandMissLatency::total     23662000                       # number of demand (read+write) miss ticks (Tick)
system.cpu.icache.overallMissLatency::cpu.inst     23662000                       # number of overall miss ticks (Tick)
system.cpu.icache.overallMissLatency::total     23662000                       # number of overall miss ticks (Tick)
system.cpu.icache.demandAccesses::cpu.inst       621235                       # number of demand (read+write) accesses (Count)
system.cpu.icache.demandAccesses::total        621235                       # number of demand (read+write) accesses (Count)
system.cpu.icache.overallAccesses::cpu.inst       621235                       # number of overall (read+write) accesses (Count)
system.cpu.icache.overallAccesses::total       621235                       # number of overall (read+write) accesses (Count)
system.cpu.icache.demandMissRate::cpu.inst     0.000489                       # miss rate for demand accesses (Ratio)
system.cpu.icache.demandMissRate::total      0.000489                       # miss rate for demand accesses (Ratio)
system.cpu.icache.overallMissRate::cpu.inst     0.000489                       # miss rate for overall accesses (Ratio)
system.cpu.icache.overallMissRate::total     0.000489                       # miss rate for overall accesses (Ratio)
system.cpu.icache.demandAvgMissLatency::cpu.inst 77835.526316                       # average overall miss latency in ticks ((Tick/Count))
system.cpu.icache.demandAvgMissLatency::total 77835.526316                       # average overall miss latency in ticks ((Tick/Count))
system.cpu.icache.overallAvgMissLatency::cpu.inst 77835.526316                       # average overall miss latency ((Tick/Count))
system.cpu.icache.overallAvgMissLatency::total 77835.526316                       # average overall miss latency ((Tick/Count))
system.cpu.icache.blockedCycles::no_mshrs          163                       # number of cycles access was blocked (Cycle)
system.cpu.icache.blockedCycles::no_targets            0                       # number of cycles access was blocked (Cycle)
system.cpu.icache.blockedCauses::no_mshrs            2                       # number of times access was blocked (Count)
system.cpu.icache.blockedCauses::no_targets            0                       # number of times access was blocked (Count)
system.cpu.icache.avgBlocked::no_mshrs      81.500000                       # average number of cycles each access was blocked ((Cycle/Count))
system.cpu.icache.avgBlocked::no_targets          nan                       # average number of cycles each access was blocked ((Cycle/Count))
system.cpu.icache.writebacks::writebacks          248                       # number of writebacks (Count)
system.cpu.icache.writebacks::total               248                       # number of writebacks (Count)
system.cpu.icache.demandMshrHits::cpu.inst           56                       # number of demand (read+write) MSHR hits (Count)
system.cpu.icache.demandMshrHits::total            56                       # number of demand (read+write) MSHR hits (Count)
system.cpu.icache.overallMshrHits::cpu.inst           56                       # number of overall MSHR hits (Count)
system.cpu.icache.overallMshrHits::total           56                       # number of overall MSHR hits (Count)
system.cpu.icache.demandMshrMisses::cpu.inst          248                       # number of demand (read+write) MSHR misses (Count)
system.cpu.icache.demandMshrMisses::total          248                       # number of demand (read+write) MSHR misses (Count)
system.cpu.icache.overallMshrMisses::cpu.inst          248                       # number of overall MSHR misses (Count)
system.cpu.icache.overallMshrMisses::total          248                       # number of overall MSHR misses (Count)
system.cpu.icache.demandMshrMissLatency::cpu.inst     19565500                       # number of demand (read+write) MSHR miss ticks (Tick)
system.cpu.icache.demandMshrMissLatency::total     19565500                       # number of demand (read+write) MSHR miss ticks (Tick)
system.cpu.icache.overallMshrMissLatency::cpu.inst     19565500                       # number of overall MSHR miss ticks (Tick)
system.cpu.icache.overallMshrMissLatency::total     19565500                       # number of overall MSHR miss ticks (Tick)
system.cpu.icache.demandMshrMissRate::cpu.inst     0.000399                       # mshr miss ratio for demand accesses (Ratio)
system.cpu.icache.demandMshrMissRate::total     0.000399                       # mshr miss ratio for demand accesses (Ratio)
system.cpu.icache.overallMshrMissRate::cpu.inst     0.000399                       # mshr miss ratio for overall accesses (Ratio)
system.cpu.icache.overallMshrMissRate::total     0.000399                       # mshr miss ratio for overall accesses (Ratio)
system.cpu.icache.demandAvgMshrMissLatency::cpu.inst 78893.145161                       # average overall mshr miss latency ((Tick/Count))
system.cpu.icache.demandAvgMshrMissLatency::total 78893.145161                       # average overall mshr miss latency ((Tick/Count))
system.cpu.icache.overallAvgMshrMissLatency::cpu.inst 78893.145161                       # average overall mshr miss latency ((Tick/Count))
system.cpu.icache.overallAvgMshrMissLatency::total 78893.145161                       # average overall mshr miss latency ((Tick/Count))
system.cpu.icache.replacements                    248                       # number of replacements (Count)
system.cpu.icache.ReadReq.hits::cpu.inst       620931                       # number of ReadReq hits (Count)
system.cpu.icache.ReadReq.hits::total          620931                       # number of ReadReq hits (Count)
system.cpu.icache.ReadReq.misses::cpu.inst          304                       # number of ReadReq misses (Count)
system.cpu.icache.ReadReq.misses::total           304                       # number of ReadReq misses (Count)
system.cpu.icache.ReadReq.missLatency::cpu.inst     23662000                       # number of ReadReq miss ticks (Tick)
system.cpu.icache.ReadReq.missLatency::total     23662000                       # number of ReadReq miss ticks (Tick)
system.cpu.icache.ReadReq.accesses::cpu.inst       621235                       # number of ReadReq accesses(hits+misses) (Count)
system.cpu.icache.ReadReq.accesses::total       621235                       # number of ReadReq accesses(hits+misses) (Count)
system.cpu.icache.ReadReq.missRate::cpu.inst     0.000489                       # miss rate for ReadReq accesses (Ratio)
system.cpu.icache.ReadReq.missRate::total     0.000489                       # miss rate for ReadReq accesses (Ratio)
system.cpu.icache.ReadReq.avgMissLatency::cpu.inst 77835.526316                       # average ReadReq miss latency ((Tick/Count))
system.cpu.icache.ReadReq.avgMissLatency::total 77835.526316                       # average ReadReq miss latency ((Tick/Count))
system.cpu.icache.ReadReq.mshrHits::cpu.inst           56                       # number of ReadReq MSHR hits (Count)
system.cpu.icache.ReadReq.mshrHits::total           56                       # number of ReadReq MSHR hits (Count)
system.cpu.icache.ReadReq.mshrMisses::cpu.inst          248                       # number of ReadReq MSHR misses (Count)
system.cpu.icache.ReadReq.mshrMisses::total          248                       # number of ReadReq MSHR misses (Count)
system.cpu.icache.ReadReq.mshrMissLatency::cpu.inst     19565500                       # number of ReadReq MSHR miss ticks (Tick)
system.cpu.icache.ReadReq.mshrMissLatency::total     19565500                       # number of ReadReq MSHR miss ticks (Tick)
system.cpu.icache.ReadReq.mshrMissRate::cpu.inst     0.000399                       # mshr miss rate for ReadReq accesses (Ratio)
system.cpu.icache.ReadReq.mshrMissRate::total     0.000399                       # mshr miss rate for ReadReq accesses (Ratio)
system.cpu.icache.ReadReq.avgMshrMissLatency::cpu.inst 78893.145161                       # average ReadReq mshr miss latency ((Tick/Count))
system.cpu.icache.ReadReq.avgMshrMissLatency::total 78893.145161                       # average ReadReq mshr miss latency ((Tick/Count))
system.cpu.icache.power_state.pwrStateResidencyTicks::UNDEFINED   5246207000                       # Cumulative time (in ticks) in various power states (Tick)
system.cpu.icache.tags.tagsInUse                  256                       # Average ticks per tags in use ((Tick/Count))
system.cpu.icache.tags.totalRefs               704323                       # Total number of references to valid blocks. (Count)
system.cpu.icache.tags.sampledRefs                504                       # Sample count of references to valid blocks. (Count)
system.cpu.icache.tags.avgRefs            1397.466270                       # Average number of references to valid blocks. ((Count/Count))
system.cpu.icache.tags.warmupTick                   0                       # The tick when the warmup percentage was hit. (Tick)
system.cpu.icache.tags.occupancies::cpu.inst          256                       # Average occupied blocks per tick, per requestor ((Count/Tick))
system.cpu.icache.tags.avgOccs::cpu.inst            1                       # Average percentage of cache occupancy ((Ratio/Tick))
system.cpu.icache.tags.avgOccs::total               1                       # Average percentage of cache occupancy ((Ratio/Tick))
system.cpu.icache.tags.occupanciesTaskId::1024          256                       # Occupied blocks per task id (Count)
system.cpu.icache.tags.ageTaskId_1024::0           78                       # Occupied blocks per task id, per block age (Count)
system.cpu.icache.tags.ageTaskId_1024::1           87                       # Occupied blocks per task id, per block age (Count)
system.cpu.icache.tags.ageTaskId_1024::3           91                       # Occupied blocks per task id, per block age (Count)
system.cpu.icache.tags.ratioOccsTaskId::1024            1                       # Ratio of occupied blocks and all blocks, per task id (Ratio)
system.cpu.icache.tags.tagAccesses            2485188                       # Number of tag accesses (Count)
system.cpu.icache.tags.dataAccesses           2485188                       # Number of data accesses (Count)
system.cpu.icache.tags.power_state.pwrStateResidencyTicks::UNDEFINED   5246207000                       # Cumulative time (in ticks) in various power states (Tick)
system.cpu.iew.idleCycles                           0                       # Number of cycles IEW is idle (Cycle)
system.cpu.iew.squashCycles                      1487                       # Number of cycles IEW is squashing (Cycle)
system.cpu.iew.blockCycles                    2465377                       # Number of cycles IEW is blocking (Cycle)
system.cpu.iew.unblockCycles                    77572                       # Number of cycles IEW is unblocking (Cycle)
system.cpu.iew.dispatchedInsts               12398843                       # Number of instructions dispatched to IQ (Count)
system.cpu.iew.dispSquashedInsts                   64                       # Number of squashed instructions skipped by dispatch (Count)
system.cpu.iew.dispLoadInsts                  2340861                       # Number of dispatched load instructions (Count)
system.cpu.iew.dispStoreInsts                  715665                       # Number of dispatched store instructions (Count)
system.cpu.iew.dispNonSpecInsts                   236                       # Number of dispatched non-speculative instructions (Count)
system.cpu.iew.iqFullEvents                     67282                       # Number of times the IQ has become full, causing a stall (Count)
system.cpu.iew.lsqFullEvents                     1839                       # Number of times the LSQ has become full, causing a stall (Count)
system.cpu.iew.memOrderViolationEvents             37                       # Number of memory order violations (Count)
system.cpu.iew.predictedTakenIncorrect            535                       # Number of branches that were predicted taken incorrectly (Count)
system.cpu.iew.predictedNotTakenIncorrect          693                       # Number of branches that were predicted not taken incorrectly (Count)
system.cpu.iew.branchMispredicts                 1228                       # Number of branch mispredicts detected at execute (Count)
system.cpu.iew.instsToCommit                 12376818                       # Cumulative count of insts sent to commit (Count)
system.cpu.iew.writebackCount                12374953                       # Cumulative count of insts written-back (Count)
system.cpu.iew.producerInst                   8798681                       # Number of instructions producing a value (Count)
system.cpu.iew.consumerInst                  12370054                       # Number of instructions consuming a value (Count)
system.cpu.iew.wbRate                        1.456635                       # Insts written-back per cycle ((Count/Cycle))
system.cpu.iew.wbFanout                      0.711289                       # Average fanout of values written-back ((Count/Count))
system.cpu.lsq0.forwLoads                      188156                       # Number of loads that had data forwarded from stores (Count)
system.cpu.lsq0.squashedLoads                   12156                       # Number of loads squashed (Count)
system.cpu.lsq0.ignoredResponses                    0                       # Number of memory responses ignored because the instruction is squashed (Count)
system.cpu.lsq0.memOrderViolation                  37                       # Number of memory ordering violations (Count)
system.cpu.lsq0.squashedStores                   2081                       # Number of stores squashed (Count)
system.cpu.lsq0.rescheduledLoads                 1582                       # Number of loads that were rescheduled (Count)
system.cpu.lsq0.blockedByCache                     79                       # Number of times an access to memory failed due to the cache being blocked (Count)
system.cpu.lsq0.loadToUse::samples            2328705                       # Distribution of cycle latency between the first time a load is issued and its completion (Unspecified)
system.cpu.lsq0.loadToUse::mean              9.796190                       # Distribution of cycle latency between the first time a load is issued and its completion (Unspecified)
system.cpu.lsq0.loadToUse::stdev            33.430575                       # Distribution of cycle latency between the first time a load is issued and its completion (Unspecified)
system.cpu.lsq0.loadToUse::0-9                2235083     95.98%     95.98% # Distribution of cycle latency between the first time a load is issued and its completion (Unspecified)
system.cpu.lsq0.loadToUse::10-19                  450      0.02%     96.00% # Distribution of cycle latency between the first time a load is issued and its completion (Unspecified)
system.cpu.lsq0.loadToUse::20-29                   11      0.00%     96.00% # Distribution of cycle latency between the first time a load is issued and its completion (Unspecified)
system.cpu.lsq0.loadToUse::30-39                    6      0.00%     96.00% # Distribution of cycle latency between the first time a load is issued and its completion (Unspecified)
system.cpu.lsq0.loadToUse::40-49                    1      0.00%     96.00% # Distribution of cycle latency between the first time a load is issued and its completion (Unspecified)
system.cpu.lsq0.loadToUse::50-59                    1      0.00%     96.00% # Distribution of cycle latency between the first time a load is issued and its completion (Unspecified)
system.cpu.lsq0.loadToUse::60-69                    1      0.00%     96.00% # Distribution of cycle latency between the first time a load is issued and its completion (Unspecified)
system.cpu.lsq0.loadToUse::80-89                    1      0.00%     96.00% # Distribution of cycle latency between the first time a load is issued and its completion (Unspecified)
system.cpu.lsq0.loadToUse::90-99                    1      0.00%     96.00% # Distribution of cycle latency between the first time a load is issued and its completion (Unspecified)
system.cpu.lsq0.loadToUse::120-129                 14      0.00%     96.00% # Distribution of cycle latency between the first time a load is issued and its completion (Unspecified)
system.cpu.lsq0.loadToUse::130-139                 14      0.00%     96.00% # Distribution of cycle latency between the first time a load is issued and its completion (Unspecified)
system.cpu.lsq0.loadToUse::140-149              67202      2.89%     98.89% # Distribution of cycle latency between the first time a load is issued and its completion (Unspecified)
system.cpu.lsq0.loadToUse::150-159              13743      0.59%     99.48% # Distribution of cycle latency between the first time a load is issued and its completion (Unspecified)
system.cpu.lsq0.loadToUse::160-169                 43      0.00%     99.48% # Distribution of cycle latency between the first time a load is issued and its completion (Unspecified)
system.cpu.lsq0.loadToUse::170-179               6073      0.26%     99.74% # Distribution of cycle latency between the first time a load is issued and its completion (Unspecified)
system.cpu.lsq0.loadToUse::180-189                612      0.03%     99.77% # Distribution of cycle latency between the first time a load is issued and its completion (Unspecified)
system.cpu.lsq0.loadToUse::190-199                 44      0.00%     99.77% # Distribution of cycle latency between the first time a load is issued and its completion (Unspecified)
system.cpu.lsq0.loadToUse::200-209                386      0.02%     99.78% # Distribution of cycle latency between the first time a load is issued and its completion (Unspecified)
system.cpu.lsq0.loadToUse::210-219                757      0.03%     99.82% # Distribution of cycle latency between the first time a load is issued and its completion (Unspecified)
system.cpu.lsq0.loadToUse::220-229                 29      0.00%     99.82% # Distribution of cycle latency between the first time a load is issued and its completion (Unspecified)
[...]
system.mem_ctrls.dram.perBankWrBursts::7         1934                       # Per bank write bursts (Count)
system.mem_ctrls.dram.perBankWrBursts::8         1340                       # Per bank write bursts (Count)
system.mem_ctrls.dram.perBankWrBursts::9         1671                       # Per bank write bursts (Count)
system.mem_ctrls.dram.perBankWrBursts::10         1832                       # Per bank write bursts (Count)
system.mem_ctrls.dram.perBankWrBursts::11         1498                       # Per bank write bursts (Count)
system.mem_ctrls.dram.perBankWrBursts::12         1242                       # Per bank write bursts (Count)
system.mem_ctrls.dram.perBankWrBursts::13         1813                       # Per bank write bursts (Count)
system.mem_ctrls.dram.perBankWrBursts::14         1474                       # Per bank write bursts (Count)
system.mem_ctrls.dram.perBankWrBursts::15         1532                       # Per bank write bursts (Count)
system.mem_ctrls.dram.totQLat               479570750                       # Total ticks spent queuing (Tick)
system.mem_ctrls.dram.totBusLat             299705000                       # Total ticks spent in databus transfers (Tick)
system.mem_ctrls.dram.totMemAccLat         1603464500                       # Total ticks spent from burst creation until serviced by the DRAM (Tick)
system.mem_ctrls.dram.avgQLat                 8000.71                       # Average queueing delay per DRAM burst ((Tick/Count))
system.mem_ctrls.dram.avgBusLat               5000.00                       # Average bus latency per DRAM burst ((Tick/Count))
system.mem_ctrls.dram.avgMemAccLat           26750.71                       # Average memory access latency per DRAM burst ((Tick/Count))
system.mem_ctrls.dram.readRowHits               55125                       # Number of row buffer hits during reads (Count)
system.mem_ctrls.dram.writeRowHits              21546                       # Number of row buffer hits during writes (Count)
system.mem_ctrls.dram.readRowHitRate            91.97                       # Row buffer hit rate for reads (Ratio)
system.mem_ctrls.dram.writeRowHitRate           86.94                       # Row buffer hit rate for writes (Ratio)
system.mem_ctrls.dram.bytesPerActivate::samples         8043                       # Bytes accessed per row activation (Byte)
system.mem_ctrls.dram.bytesPerActivate::mean   674.017158                       # Bytes accessed per row activation (Byte)
system.mem_ctrls.dram.bytesPerActivate::gmean   523.237261                       # Bytes accessed per row activation (Byte)
system.mem_ctrls.dram.bytesPerActivate::stdev   362.553739                       # Bytes accessed per row activation (Byte)
system.mem_ctrls.dram.bytesPerActivate::0-127          528      6.56%      6.56% # Bytes accessed per row activation (Byte)
system.mem_ctrls.dram.bytesPerActivate::128-255          775      9.64%     16.20% # Bytes accessed per row activation (Byte)
system.mem_ctrls.dram.bytesPerActivate::256-383         1086     13.50%     29.70% # Bytes accessed per row activation (Byte)
system.mem_ctrls.dram.bytesPerActivate::384-511          578      7.19%     36.89% # Bytes accessed per row activation (Byte)
system.mem_ctrls.dram.bytesPerActivate::512-639          421      5.23%     42.12% # Bytes accessed per row activation (Byte)
system.mem_ctrls.dram.bytesPerActivate::640-767          533      6.63%     48.75% # Bytes accessed per row activation (Byte)
system.mem_ctrls.dram.bytesPerActivate::768-895          338      4.20%     52.95% # Bytes accessed per row activation (Byte)
system.mem_ctrls.dram.bytesPerActivate::896-1023          312      3.88%     56.83% # Bytes accessed per row activation (Byte)
system.mem_ctrls.dram.bytesPerActivate::1024-1151         3472     43.17%    100.00% # Bytes accessed per row activation (Byte)
system.mem_ctrls.dram.bytesPerActivate::total         8043                       # Bytes accessed per row activation (Byte)
system.mem_ctrls.dram.bytesRead               3836224                       # Total bytes read (Byte)
system.mem_ctrls.dram.bytesWritten            1586112                       # Total bytes written (Byte)
system.mem_ctrls.dram.avgRdBW              903.110771                       # Average DRAM read bandwidth in MiBytes/s ((Byte/Second))
system.mem_ctrls.dram.avgWrBW              373.397078                       # Average DRAM write bandwidth in MiBytes/s ((Byte/Second))
system.mem_ctrls.dram.peakBW                 12800.00                       # Theoretical peak bandwidth in MiByte/s ((Byte/Second))
system.mem_ctrls.dram.busUtil                    9.97                       # Data bus utilization in percentage (Ratio)
system.mem_ctrls.dram.busUtilRead                7.06                       # Data bus utilization in percentage for reads (Ratio)
system.mem_ctrls.dram.busUtilWrite               2.92                       # Data bus utilization in percentage for writes (Ratio)
system.mem_ctrls.dram.pageHitRate               90.50                       # Row buffer hit rate, read and write combined (Ratio)
system.mem_ctrls.dram.power_state.pwrStateResidencyTicks::UNDEFINED   5246207000                       # Cumulative time (in ticks) in various power states (Tick)
system.mem_ctrls.dram.rank0.actEnergy        28381500                       # Energy for activate commands per rank (pJ) (Joule)
system.mem_ctrls.dram.rank0.preEnergy        15054765                       # Energy for precharge commands per rank (pJ) (Joule)
system.mem_ctrls.dram.rank0.readEnergy      212172240                       # Energy for read commands per rank (pJ) (Joule)
system.mem_ctrls.dram.rank0.writeEnergy      64628820                       # Energy for write commands per rank (pJ) (Joule)
system.mem_ctrls.dram.rank0.refreshEnergy 334978800.000000                       # Energy for refresh commands per rank (pJ) (Joule)
system.mem_ctrls.dram.rank0.actBackEnergy   1602659310                       # Energy for active background per rank (pJ) (Joule)
system.mem_ctrls.dram.rank0.preBackEnergy    281954880                       # Energy for precharge background per rank (pJ) (Joule)
system.mem_ctrls.dram.rank0.actPowerDownEnergy            0                       # Energy for active power-down per rank (pJ) (Joule)
system.mem_ctrls.dram.rank0.prePowerDownEnergy            0                       # Energy for precharge power-down per rank (pJ) (Joule)
system.mem_ctrls.dram.rank0.selfRefreshEnergy            0                       # Energy for self refresh per rank (pJ) (Joule)
system.mem_ctrls.dram.rank0.totalEnergy    2539830315                       # Total energy per rank (pJ) (Joule)
system.mem_ctrls.dram.rank0.averagePower   597.918191                       # Core power per rank (mW) (Watt)
system.mem_ctrls.dram.rank0.totalIdleTime            0                       # Total Idle time Per DRAM Rank (Tick)
system.mem_ctrls.dram.rank0.pwrStateTime::IDLE    716933500                       # Time in different power states (Tick)
system.mem_ctrls.dram.rank0.pwrStateTime::REF    141700000                       # Time in different power states (Tick)
system.mem_ctrls.dram.rank0.pwrStateTime::SREF            0                       # Time in different power states (Tick)
system.mem_ctrls.dram.rank0.pwrStateTime::PRE_PDN            0                       # Time in different power states (Tick)
system.mem_ctrls.dram.rank0.pwrStateTime::ACT   3390227500                       # Time in different power states (Tick)
system.mem_ctrls.dram.rank0.pwrStateTime::ACT_PDN            0                       # Time in different power states (Tick)
system.mem_ctrls.dram.rank1.actEnergy        29174040                       # Energy for activate commands per rank (pJ) (Joule)
system.mem_ctrls.dram.rank1.preEnergy        15483600                       # Energy for precharge commands per rank (pJ) (Joule)
system.mem_ctrls.dram.rank1.readEnergy      215949300                       # Energy for read commands per rank (pJ) (Joule)
system.mem_ctrls.dram.rank1.writeEnergy      64738440                       # Energy for write commands per rank (pJ) (Joule)
system.mem_ctrls.dram.rank1.refreshEnergy 334978800.000000                       # Energy for refresh commands per rank (pJ) (Joule)
system.mem_ctrls.dram.rank1.actBackEnergy   1599214230                       # Energy for active background per rank (pJ) (Joule)
system.mem_ctrls.dram.rank1.preBackEnergy    284981280                       # Energy for precharge background per rank (pJ) (Joule)
system.mem_ctrls.dram.rank1.actPowerDownEnergy            0                       # Energy for active power-down per rank (pJ) (Joule)
system.mem_ctrls.dram.rank1.prePowerDownEnergy            0                       # Energy for precharge power-down per rank (pJ) (Joule)
system.mem_ctrls.dram.rank1.selfRefreshEnergy            0                       # Energy for self refresh per rank (pJ) (Joule)
system.mem_ctrls.dram.rank1.totalEnergy    2544519690                       # Total energy per rank (pJ) (Joule)
system.mem_ctrls.dram.rank1.averagePower   599.022148                       # Core power per rank (mW) (Watt)
system.mem_ctrls.dram.rank1.totalIdleTime            0                       # Total Idle time Per DRAM Rank (Tick)
system.mem_ctrls.dram.rank1.pwrStateTime::IDLE    724179250                       # Time in different power states (Tick)
system.mem_ctrls.dram.rank1.pwrStateTime::REF    141700000                       # Time in different power states (Tick)
system.mem_ctrls.dram.rank1.pwrStateTime::SREF            0                       # Time in different power states (Tick)
system.mem_ctrls.dram.rank1.pwrStateTime::PRE_PDN            0                       # Time in different power states (Tick)
system.mem_ctrls.dram.rank1.pwrStateTime::ACT   3383308250                       # Time in different power states (Tick)
system.mem_ctrls.dram.rank1.pwrStateTime::ACT_PDN            0                       # Time in different power states (Tick)
system.mem_ctrls.power_state.pwrStateResidencyTicks::UNDEFINED   5246207000                       # Cumulative time (in ticks) in various power states (Tick)
system.membus.transDist::ReadResp               59934                       # Transaction distribution (Count)
system.membus.transDist::WritebackDirty         24781                       # Transaction distribution (Count)
system.membus.transDist::CleanEvict             35101                       # Transaction distribution (Count)
system.membus.transDist::ReadExReq                  8                       # Transaction distribution (Count)
system.membus.transDist::ReadExResp                 8                       # Transaction distribution (Count)
system.membus.transDist::ReadSharedReq          59933                       # Transaction distribution (Count)
system.membus.pktCount_system.l2.mem_side_port::system.mem_ctrls.port       179765                       # Packet count per connected requestor and responder (Count)
system.membus.pktCount::total                  179765                       # Packet count per connected requestor and responder (Count)
system.membus.pktSize_system.l2.mem_side_port::system.mem_ctrls.port      5422272                       # Cumulative packet size per connected requestor and responder (Byte)
system.membus.pktSize::total                  5422272                       # Cumulative packet size per connected requestor and responder (Byte)
system.membus.snoops                                0                       # Total snoops (Count)
system.membus.snoopTraffic                          0                       # Total snoop traffic (Byte)
system.membus.snoopFanout::samples              59941                       # Request fanout histogram (Count)
system.membus.snoopFanout::mean                     0                       # Request fanout histogram (Count)
system.membus.snoopFanout::stdev                    0                       # Request fanout histogram (Count)
system.membus.snoopFanout::underflows               0      0.00%      0.00% # Request fanout histogram (Count)
system.membus.snoopFanout::0                    59941    100.00%    100.00% # Request fanout histogram (Count)
system.membus.snoopFanout::1                        0      0.00%    100.00% # Request fanout histogram (Count)
system.membus.snoopFanout::overflows                0      0.00%    100.00% # Request fanout histogram (Count)
system.membus.snoopFanout::min_value                0                       # Request fanout histogram (Count)
system.membus.snoopFanout::max_value                0                       # Request fanout histogram (Count)
system.membus.snoopFanout::total                59941                       # Request fanout histogram (Count)
system.membus.power_state.pwrStateResidencyTicks::UNDEFINED   5246207000                       # Cumulative time (in ticks) in various power states (Tick)
system.membus.reqLayer0.occupancy           235816000                       # Layer occupancy (ticks) (Tick)
system.membus.reqLayer0.utilization               0.1                       # Layer utilization (Ratio)
system.membus.respLayer1.occupancy          312105000                       # Layer occupancy (ticks) (Tick)
system.membus.respLayer1.utilization              0.1                       # Layer utilization (Ratio)
system.membus.snoop_filter.totRequests         119823                       # Total number of requests made to the snoop filter. (Count)
system.membus.snoop_filter.hitSingleRequests        59882                       # Number of requests hitting in the snoop filter with a single holder of the requested data. (Count)
system.membus.snoop_filter.hitMultiRequests            0                       # Number of requests hitting in the snoop filter with multiple (>1) holders of the requested data. (Count)
system.membus.snoop_filter.totSnoops                0                       # Total number of snoops made to the snoop filter. (Count)
system.membus.snoop_filter.hitSingleSnoops            0                       # Number of snoops hitting in the snoop filter with a single holder of the requested data. (Count)
system.membus.snoop_filter.hitMultiSnoops            0                       # Number of snoops hitting in the snoop filter with multiple (>1) holders of the requested data. (Count)
system.tol2bus.transDist::ReadResp              59962                       # Transaction distribution (Count)
system.tol2bus.transDist::WritebackDirty        50578                       # Transaction distribution (Count)
system.tol2bus.transDist::WritebackClean          248                       # Transaction distribution (Count)
system.tol2bus.transDist::CleanEvict            69310                       # Transaction distribution (Count)
system.tol2bus.transDist::ReadExReq                 8                       # Transaction distribution (Count)
system.tol2bus.transDist::ReadExResp                8                       # Transaction distribution (Count)
system.tol2bus.transDist::ReadCleanReq            248                       # Transaction distribution (Count)
system.tol2bus.transDist::ReadSharedReq         59714                       # Transaction distribution (Count)
system.tol2bus.pktCount_system.cpu.icache.mem_side_port::system.l2.cpu_side_port          744                       # Packet count per connected requestor and responder (Count)
system.tol2bus.pktCount_system.cpu.dcache.mem_side_port::system.l2.cpu_side_port       179166                       # Packet count per connected requestor and responder (Count)
system.tol2bus.pktCount::total                 179910                       # Packet count per connected requestor and responder (Count)
system.tol2bus.pktSize_system.cpu.icache.mem_side_port::system.l2.cpu_side_port        31744                       # Cumulative packet size per connected requestor and responder (Byte)
system.tol2bus.pktSize_system.cpu.dcache.mem_side_port::system.l2.cpu_side_port      5473152                       # Cumulative packet size per connected requestor and responder (Byte)
system.tol2bus.pktSize::total                 5504896                       # Cumulative packet size per connected requestor and responder (Byte)
system.tol2bus.snoops                           60166                       # Total snoops (Count)
system.tol2bus.snoopTraffic                   1586048                       # Total snoop traffic (Byte)
system.tol2bus.snoopFanout::samples            120136                       # Request fanout histogram (Count)
system.tol2bus.snoopFanout::mean             0.002905                       # Request fanout histogram (Count)
system.tol2bus.snoopFanout::stdev            0.053820                       # Request fanout histogram (Count)
system.tol2bus.snoopFanout::underflows              0      0.00%      0.00% # Request fanout histogram (Count)
system.tol2bus.snoopFanout::0                  119787     99.71%     99.71% # Request fanout histogram (Count)
system.tol2bus.snoopFanout::1                     349      0.29%    100.00% # Request fanout histogram (Count)
system.tol2bus.snoopFanout::2                       0      0.00%    100.00% # Request fanout histogram (Count)
system.tol2bus.snoopFanout::overflows               0      0.00%    100.00% # Request fanout histogram (Count)
system.tol2bus.snoopFanout::min_value               0                       # Request fanout histogram (Count)
system.tol2bus.snoopFanout::max_value               1                       # Request fanout histogram (Count)
system.tol2bus.snoopFanout::total              120136                       # Request fanout histogram (Count)
system.tol2bus.power_state.pwrStateResidencyTicks::UNDEFINED   5246207000                       # Cumulative time (in ticks) in various power states (Tick)
system.tol2bus.reqLayer0.occupancy           86014000                       # Layer occupancy (ticks) (Tick)
system.tol2bus.reqLayer0.utilization              0.0                       # Layer utilization (Ratio)
system.tol2bus.respLayer0.occupancy            372000                       # Layer occupancy (ticks) (Tick)
system.tol2bus.respLayer0.utilization             0.0                       # Layer utilization (Ratio)
system.tol2bus.respLayer1.occupancy          89583000                       # Layer occupancy (ticks) (Tick)
system.tol2bus.respLayer1.utilization             0.0                       # Layer utilization (Ratio)
system.tol2bus.snoop_filter.totRequests        119940                       # Total number of requests made to the snoop filter. (Count)
system.tol2bus.snoop_filter.hitSingleRequests        59971                       # Number of requests hitting in the snoop filter with a single holder of the requested data. (Count)
system.tol2bus.snoop_filter.hitMultiRequests            0                       # Number of requests hitting in the snoop filter with multiple (>1) holders of the requested data. (Count)
system.tol2bus.snoop_filter.totSnoops             348                       # Total number of snoops made to the snoop filter. (Count)
system.tol2bus.snoop_filter.hitSingleSnoops          348                       # Number of snoops hitting in the snoop filter with a single holder of the requested data. (Count)
system.tol2bus.snoop_filter.hitMultiSnoops            0                       # Number of snoops hitting in the snoop filter with multiple (>1) holders of the requested data. (Count)
system.voltage_domain.voltage                       1                       # Voltage in Volts (Volt)
system.workload.inst.arm                            0                       # number of arm instructions executed (Count)
system.workload.inst.quiesce                        0                       # number of quiesce instructions executed (Count)

---------- End Simulation Statistics   ----------
