
---------- Begin Simulation Statistics ----------
simSeconds                                   0.011018                       # Number of seconds simulated (Second)
simTicks                                  11018060000                       # Number of ticks simulated (Tick)
finalTick                                 11018060000                       # Number of ticks from beginning of simulation (restored from checkpoints and never reset) (Tick)
simFreq                                  1000000000000                       # The number of ticks per simulated second ((Tick/Second))
hostSeconds                                     58.37                       # Real time elapsed on the host (Second)
hostTickRate                                188775696                       # The number of ticks simulated per host second (ticks/s) ((Tick/Second))
hostMemory                                     682164                       # Number of bytes of host memory used (Byte)
simInsts                                     17746110                       # Number of instructions simulated (Count)
simOps                                       18140150                       # Number of ops (including micro ops) simulated (Count)
hostInstRate                                   304049                       # Simulator instruction rate (inst/s) ((Count/Second))
hostOpRate                                     310800                       # Simulator op (including micro ops) rate (op/s) ((Count/Second))
system.clk_domain.clock                          1000                       # Clock period in ticks (Tick)
system.cpu.numCycles                         22036121                       # Number of cpu cycles simulated (Cycle)
system.cpu.numWorkItemsStarted                      0                       # Number of work items this cpu started (Count)
system.cpu.numWorkItemsCompleted                    0                       # Number of work items this cpu completed (Count)
system.cpu.instsAdded                        19106093                       # Number of instructions added to the IQ (excludes non-spec) (Count)
system.cpu.nonSpecInstsAdded                      401                       # Number of non-speculative instructions added to the IQ (Count)
system.cpu.instsIssued                       18785898                       # Number of instructions issued (Count)
system.cpu.squashedInstsIssued                  43724                       # Number of squashed instructions issued (Count)
system.cpu.squashedInstsExamined               966343                       # Number of squashed instructions iterated over during squash; mainly for profiling (Count)
system.cpu.squashedOperandsExamined            721586                       # Number of squashed operands that are examined and possibly removed from graph (Count)
system.cpu.squashedNonSpecRemoved                 128                       # Number of squashed non-spec instructions that were removed (Count)
system.cpu.numIssuedDist::samples            21880726                       # Number of insts issued each cycle (Count)
system.cpu.numIssuedDist::mean               0.858559                       # Number of insts issued each cycle (Count)
system.cpu.numIssuedDist::stdev              0.991751                       # Number of insts issued each cycle (Count)
system.cpu.numIssuedDist::underflows                0      0.00%      0.00% # Number of insts issued each cycle (Count)
system.cpu.numIssuedDist::0                   9084845     41.52%     41.52% # Number of insts issued each cycle (Count)
system.cpu.numIssuedDist::1                   8630989     39.45%     80.97% # Number of insts issued each cycle (Count)
system.cpu.numIssuedDist::2                   3180461     14.54%     95.50% # Number of insts issued each cycle (Count)
system.cpu.numIssuedDist::3                    569512      2.60%     98.10% # Number of insts issued each cycle (Count)
system.cpu.numIssuedDist::4                    209855      0.96%     99.06% # Number of insts issued each cycle (Count)
system.cpu.numIssuedDist::5                     81139      0.37%     99.43% # Number of insts issued each cycle (Count)
system.cpu.numIssuedDist::6                     60103      0.27%     99.71% # Number of insts issued each cycle (Count)
system.cpu.numIssuedDist::7                     30858      0.14%     99.85% # Number of insts issued each cycle (Count)
system.cpu.numIssuedDist::8                     32964      0.15%    100.00% # Number of insts issued each cycle (Count)
system.cpu.numIssuedDist::overflows                 0      0.00%    100.00% # Number of insts issued each cycle (Count)
system.cpu.numIssuedDist::min_value                 0                       # Number of insts issued each cycle (Count)
system.cpu.numIssuedDist::max_value                 8                       # Number of insts issued each cycle (Count)
system.cpu.numIssuedDist::total              21880726                       # Number of insts issued each cycle (Count)
system.cpu.statFuBusy::No_OpClass                   0      0.00%      0.00% # attempts to use FU when none available (Count)
system.cpu.statFuBusy::IntAlu                   19980      0.10%      0.10% # attempts to use FU when none available (Count)
system.cpu.statFuBusy::IntMult                 102491      0.51%      0.61% # attempts to use FU when none available (Count)
system.cpu.statFuBusy::IntDiv                19896313     99.20%     99.81% # attempts to use FU when none available (Count)
system.cpu.statFuBusy::FloatAdd                     0      0.00%     99.81% # attempts to use FU when none available (Count)
system.cpu.statFuBusy::FloatCmp                     0      0.00%     99.81% # attempts to use FU when none available (Count)
system.cpu.statFuBusy::FloatCvt                     0      0.00%     99.81% # attempts to use FU when none available (Count)
system.cpu.statFuBusy::FloatMult                    0      0.00%     99.81% # attempts to use FU when none available (Count)
system.cpu.statFuBusy::FloatMultAcc                 0      0.00%     99.81% # attempts to use FU when none available (Count)
system.cpu.statFuBusy::FloatDiv                     0      0.00%     99.81% # attempts to use FU when none available (Count)
system.cpu.statFuBusy::FloatMisc                    0      0.00%     99.81% # attempts to use FU when none available (Count)
system.cpu.statFuBusy::FloatSqrt                    0      0.00%     99.81% # attempts to use FU when none available (Count)
system.cpu.statFuBusy::SimdAdd                      0      0.00%     99.81% # attempts to use FU when none available (Count)
system.cpu.statFuBusy::SimdAddAcc                   0      0.00%     99.81% # attempts to use FU when none available (Count)
system.cpu.statFuBusy::SimdAlu                     17      0.00%     99.81% # attempts to use FU when none available (Count)
system.cpu.statFuBusy::SimdCmp                     15      0.00%     99.81% # attempts to use FU when none available (Count)
system.cpu.statFuBusy::SimdCvt                      0      0.00%     99.81% # attempts to use FU when none available (Count)
system.cpu.statFuBusy::SimdMisc                     0      0.00%     99.81% # attempts to use FU when none available (Count)
system.cpu.statFuBusy::SimdMult                     0      0.00%     99.81% # attempts to use FU when none available (Count)
system.cpu.statFuBusy::SimdMultAcc                  0      0.00%     99.81% # attempts to use FU when none available (Count)
system.cpu.statFuBusy::SimdShift                    0      0.00%     99.81% # attempts to use FU when none available (Count)
system.cpu.statFuBusy::SimdShiftAcc                 0      0.00%     99.81% # attempts to use FU when none available (Count)
system.cpu.statFuBusy::SimdDiv                      0      0.00%     99.81% # attempts to use FU when none available (Count)
system.cpu.statFuBusy::SimdSqrt                     0      0.00%     99.81% # attempts to use FU when none available (Count)
system.cpu.statFuBusy::SimdFloatAdd                 0      0.00%     99.81% # attempts to use FU when none available (Count)
system.cpu.statFuBusy::SimdFloatAlu                 0      0.00%     99.81% # attempts to use FU when none available (Count)
system.cpu.statFuBusy::SimdFloatCmp                 0      0.00%     99.81% # attempts to use FU when none available (Count)
system.cpu.statFuBusy::SimdFloatCvt                 0      0.00%     99.81% # attempts to use FU when none available (Count)
system.cpu.statFuBusy::SimdFloatDiv                 0      0.00%     99.81% # attempts to use FU when none available (Count)
system.cpu.statFuBusy::SimdFloatMisc                0      0.00%     99.81% # attempts to use FU when none available (Count)
system.cpu.statFuBusy::SimdFloatMult                0      0.00%     99.81% # attempts to use FU when none available (Count)
system.cpu.statFuBusy::SimdFloatMultAcc             0      0.00%     99.81% # attempts to use FU when none available (Count)
system.cpu.statFuBusy::SimdFloatSqrt                0      0.00%     99.81% # attempts to use FU when none available (Count)
system.cpu.statFuBusy::SimdReduceAdd                0      0.00%     99.81% # attempts to use FU when none available (Count)
system.cpu.statFuBusy::SimdReduceAlu                0      0.00%     99.81% # attempts to use FU when none available (Count)
system.cpu.statFuBusy::SimdReduceCmp                0      0.00%     99.81% # attempts to use FU when none available (Count)
system.cpu.statFuBusy::SimdFloatReduceAdd            0      0.00%     99.81% # attempts to use FU when none available (Count)
system.cpu.statFuBusy::SimdFloatReduceCmp            0      0.00%     99.81% # attempts to use FU when none available (Count)
system.cpu.statFuBusy::SimdAes                      0      0.00%     99.81% # attempts to use FU when none available (Count)
system.cpu.statFuBusy::SimdAesMix                   0      0.00%     99.81% # attempts to use FU when none available (Count)
system.cpu.statFuBusy::SimdSha1Hash                 0      0.00%     99.81% # attempts to use FU when none available (Count)
system.cpu.statFuBusy::SimdSha1Hash2                0      0.00%     99.81% # attempts to use FU when none available (Count)
system.cpu.statFuBusy::SimdSha256Hash               0      0.00%     99.81% # attempts to use FU when none available (Count)
system.cpu.statFuBusy::SimdSha256Hash2              0      0.00%     99.81% # attempts to use FU when none available (Count)
system.cpu.statFuBusy::SimdShaSigma2                0      0.00%     99.81% # attempts to use FU when none available (Count)
system.cpu.statFuBusy::SimdShaSigma3                0      0.00%     99.81% # attempts to use FU when none available (Count)
system.cpu.statFuBusy::SimdPredAlu                  0      0.00%     99.81% # attempts to use FU when none available (Count)
system.cpu.statFuBusy::MemRead                  23405      0.12%     99.93% # attempts to use FU when none available (Count)
system.cpu.statFuBusy::MemWrite                 14931      0.07%    100.00% # attempts to use FU when none available (Count)
system.cpu.statFuBusy::FloatMemRead                 0      0.00%    100.00% # attempts to use FU when none available (Count)
system.cpu.statFuBusy::FloatMemWrite                0      0.00%    100.00% # attempts to use FU when none available (Count)
system.cpu.statFuBusy::IprAccess                    0      0.00%    100.00% # attempts to use FU when none available (Count)
system.cpu.statFuBusy::InstPrefetch                 0      0.00%    100.00% # attempts to use FU when none available (Count)
system.cpu.statIssuedInstType_0::No_OpClass        63596      0.34%      0.34% # Number of instructions issued per FU type, per thread (Count)
system.cpu.statIssuedInstType_0::IntAlu      13811691     73.52%     73.86% # Number of instructions issued per FU type, per thread (Count)
system.cpu.statIssuedInstType_0::IntMult      1911580     10.18%     84.04% # Number of instructions issued per FU type, per thread (Count)
system.cpu.statIssuedInstType_0::IntDiv       1900376     10.12%     94.15% # Number of instructions issued per FU type, per thread (Count)
system.cpu.statIssuedInstType_0::FloatAdd            0      0.00%     94.15% # Number of instructions issued per FU type, per thread (Count)
system.cpu.statIssuedInstType_0::FloatCmp            2      0.00%     94.15% # Number of instructions issued per FU type, per thread (Count)
system.cpu.statIssuedInstType_0::FloatCvt            1      0.00%     94.15% # Number of instructions issued per FU type, per thread (Count)
system.cpu.statIssuedInstType_0::FloatMult            1      0.00%     94.15% # Number of instructions issued per FU type, per thread (Count)
system.cpu.statIssuedInstType_0::FloatMultAcc            0      0.00%     94.15% # Number of instructions issued per FU type, per thread (Count)
system.cpu.statIssuedInstType_0::FloatDiv            1      0.00%     94.15% # Number of instructions issued per FU type, per thread (Count)
system.cpu.statIssuedInstType_0::FloatMisc            7      0.00%     94.15% # Number of instructions issued per FU type, per thread (Count)
system.cpu.statIssuedInstType_0::FloatSqrt            0      0.00%     94.15% # Number of instructions issued per FU type, per thread (Count)
system.cpu.statIssuedInstType_0::SimdAdd        23143      0.12%     94.27% # Number of instructions issued per FU type, per thread (Count)
system.cpu.statIssuedInstType_0::SimdAddAcc            0      0.00%     94.27% # Number of instructions issued per FU type, per thread (Count)
system.cpu.statIssuedInstType_0::SimdAlu       148906      0.79%     95.07% # Number of instructions issued per FU type, per thread (Count)
system.cpu.statIssuedInstType_0::SimdCmp          129      0.00%     95.07% # Number of instructions issued per FU type, per thread (Count)
system.cpu.statIssuedInstType_0::SimdCvt            0      0.00%     95.07% # Number of instructions issued per FU type, per thread (Count)
system.cpu.statIssuedInstType_0::SimdMisc        23176      0.12%     95.19% # Number of instructions issued per FU type, per thread (Count)
system.cpu.statIssuedInstType_0::SimdMult            0      0.00%     95.19% # Number of instructions issued per FU type, per thread (Count)
system.cpu.statIssuedInstType_0::SimdMultAcc            0      0.00%     95.19% # Number of instructions issued per FU type, per thread (Count)
system.cpu.statIssuedInstType_0::SimdShift            0      0.00%     95.19% # Number of instructions issued per FU type, per thread (Count)
system.cpu.statIssuedInstType_0::SimdShiftAcc            0      0.00%     95.19% # Number of instructions issued per FU type, per thread (Count)
system.cpu.statIssuedInstType_0::SimdDiv            0      0.00%     95.19% # Number of instructions issued per FU type, per thread (Count)
system.cpu.statIssuedInstType_0::SimdSqrt            0      0.00%     95.19% # Number of instructions issued per FU type, per thread (Count)
system.cpu.statIssuedInstType_0::SimdFloatAdd            0      0.00%     95.19% # Number of instructions issued per FU type, per thread (Count)
system.cpu.statIssuedInstType_0::SimdFloatAlu            0      0.00%     95.19% # Number of instructions issued per FU type, per thread (Count)
system.cpu.statIssuedInstType_0::SimdFloatCmp            0      0.00%     95.19% # Number of instructions issued per FU type, per thread (Count)
system.cpu.statIssuedInstType_0::SimdFloatCvt            0      0.00%     95.19% # Number of instructions issued per FU type, per thread (Count)
system.cpu.statIssuedInstType_0::SimdFloatDiv            0      0.00%     95.19% # Number of instructions issued per FU type, per thread (Count)
system.cpu.statIssuedInstType_0::SimdFloatMisc            0      0.00%     95.19% # Number of instructions issued per FU type, per thread (Count)
system.cpu.statIssuedInstType_0::SimdFloatMult            0      0.00%     95.19% # Number of instructions issued per FU type, per thread (Count)
system.cpu.statIssuedInstType_0::SimdFloatMultAcc            0      0.00%     95.19% # Number of instructions issued per FU type, per thread (Count)
system.cpu.statIssuedInstType_0::SimdFloatSqrt            0      0.00%     95.19% # Number of instructions issued per FU type, per thread (Count)
system.cpu.statIssuedInstType_0::SimdReduceAdd            0      0.00%     95.19% # Number of instructions issued per FU type, per thread (Count)
system.cpu.statIssuedInstType_0::SimdReduceAlu            0      0.00%     95.19% # Number of instructions issued per FU type, per thread (Count)
system.cpu.statIssuedInstType_0::SimdReduceCmp            0      0.00%     95.19% # Number of instructions issued per FU type, per thread (Count)
system.cpu.statIssuedInstType_0::SimdFloatReduceAdd            0      0.00%     95.19% # Number of instructions issued per FU type, per thread (Count)
system.cpu.statIssuedInstType_0::SimdFloatReduceCmp            0      0.00%     95.19% # Number of instructions issued per FU type, per thread (Count)
system.cpu.statIssuedInstType_0::SimdAes            0      0.00%     95.19% # Number of instructions issued per FU type, per thread (Count)
system.cpu.statIssuedInstType_0::SimdAesMix            0      0.00%     95.19% # Number of instructions issued per FU type, per thread (Count)
system.cpu.statIssuedInstType_0::SimdSha1Hash            0      0.00%     95.19% # Number of instructions issued per FU type, per thread (Count)
system.cpu.statIssuedInstType_0::SimdSha1Hash2            0      0.00%     95.19% # Number of instructions issued per FU type, per thread (Count)
system.cpu.statIssuedInstType_0::SimdSha256Hash            0      0.00%     95.19% # Number of instructions issued per FU type, per thread (Count)
system.cpu.statIssuedInstType_0::SimdSha256Hash2            0      0.00%     95.19% # Number of instructions issued per FU type, per thread (Count)
system.cpu.statIssuedInstType_0::SimdShaSigma2            0      0.00%     95.19% # Number of instructions issued per FU type, per thread (Count)
system.cpu.statIssuedInstType_0::SimdShaSigma3            0      0.00%     95.19% # Number of instructions issued per FU type, per thread (Count)
system.cpu.statIssuedInstType_0::SimdPredAlu            0      0.00%     95.19% # Number of instructions issued per FU type, per thread (Count)
system.cpu.statIssuedInstType_0::MemRead       672180      3.58%     98.77% # Number of instructions issued per FU type, per thread (Count)
system.cpu.statIssuedInstType_0::MemWrite       231109      1.23%    100.00% # Number of instructions issued per FU type, per thread (Count)
system.cpu.statIssuedInstType_0::FloatMemRead            0      0.00%    100.00% # Number of instructions issued per FU type, per thread (Count)
system.cpu.statIssuedInstType_0::FloatMemWrite            0      0.00%    100.00% # Number of instructions issued per FU type, per thread (Count)
system.cpu.statIssuedInstType_0::IprAccess            0      0.00%    100.00% # Number of instructions issued per FU type, per thread (Count)
system.cpu.statIssuedInstType_0::InstPrefetch            0      0.00%    100.00% # Number of instructions issued per FU type, per thread (Count)
system.cpu.statIssuedInstType_0::total       18785898                       # Number of instructions issued per FU type, per thread (Count)
system.cpu.issueRate                         0.852505                       # Inst issue rate ((Count/Cycle))
system.cpu.fuBusy                            20057152                       # FU busy when requested (Count)
system.cpu.fuBusyRate                        1.067671                       # FU busy rate (busy events/executed inst) ((Count/Count))
system.cpu.intInstQueueReads                 78777784                       # Number of integer instruction queue reads (Count)
system.cpu.intInstQueueWrites                19664848                       # Number of integer instruction queue writes (Count)
system.cpu.intInstQueueWakeupAccesses        18304387                       # Number of integer instruction queue wakeup accesses (Count)
system.cpu.fpInstQueueReads                         0                       # Number of floating instruction queue reads (Count)
system.cpu.fpInstQueueWrites                        0                       # Number of floating instruction queue writes (Count)
system.cpu.fpInstQueueWakeupAccesses                0                       # Number of floating instruction queue wakeup accesses (Count)
system.cpu.vecInstQueueReads                   775614                       # Number of vector instruction queue reads (Count)
system.cpu.vecInstQueueWrites                  408063                       # Number of vector instruction queue writes (Count)
system.cpu.vecInstQueueWakeupAccesses          386834                       # Number of vector instruction queue wakeup accesses (Count)
system.cpu.intAluAccesses                    38454246                       # Number of integer alu accesses (Count)
system.cpu.fpAluAccesses                            0                       # Number of floating point alu accesses (Count)
system.cpu.vecAluAccesses                      325208                       # Number of vector alu accesses (Count)
system.cpu.numInsts                          18759933                       # Number of executed instructions (Count)
system.cpu.numLoadInsts                        660511                       # Number of load instructions executed (Count)
system.cpu.numSquashedInsts                     25965                       # Number of squashed instructions skipped in execute (Count)
system.cpu.numSwp                                   0                       # Number of swp insts executed (Count)
system.cpu.numNop                               64434                       # Number of nop insts executed (Count)
system.cpu.numRefs                             890046                       # Number of memory reference insts executed (Count)
system.cpu.numBranches                        3993068                       # Number of branches executed (Count)
system.cpu.numStoreInsts                       229535                       # Number of stores executed (Count)
system.cpu.numRate                           0.851326                       # Inst execution rate ((Count/Cycle))
system.cpu.timesIdled                            1651                       # Number of times that the entire CPU went into an idle state and unscheduled itself (Count)
system.cpu.idleCycles                          155395                       # Total number of cycles that the CPU has spent unscheduled due to idling (Cycle)
system.cpu.committedInsts                    17746110                       # Number of Instructions Simulated (Count)
system.cpu.committedOps                      18140150                       # Number of Ops (including micro ops) Simulated (Count)
system.cpu.cpi                               1.241744                       # CPI: Cycles Per Instruction ((Cycle/Count))
system.cpu.totalCpi                          1.241744                       # CPI: Total CPI of All Threads ((Cycle/Count))
system.cpu.ipc                               0.805319                       # IPC: Instructions Per Cycle ((Count/Cycle))
system.cpu.totalIpc                          0.805319                       # IPC: Total IPC of All Threads ((Count/Cycle))
system.cpu.intRegfileReads                   24886244                       # Number of integer regfile reads (Count)
system.cpu.intRegfileWrites                  11031694                       # Number of integer regfile writes (Count)
system.cpu.vecRegfileReads                     936542                       # number of vector regfile reads (Count)
system.cpu.ccRegfileReads                     9493131                       # number of cc regfile reads (Count)
system.cpu.ccRegfileWrites                    9489944                       # number of cc regfile writes (Count)
system.cpu.miscRegfileReads                   3401898                       # number of misc regfile reads (Count)
system.cpu.miscRegfileWrites                      215                       # number of misc regfile writes (Count)
system.cpu.MemDepUnit__0.insertedLoads         656832                       # Number of loads inserted to the mem dependence unit. (Count)
system.cpu.MemDepUnit__0.insertedStores        237528                       # Number of stores inserted to the mem dependence unit. (Count)
system.cpu.MemDepUnit__0.conflictingLoads         9299                       # Number of conflicting loads. (Count)
system.cpu.MemDepUnit__0.conflictingStores        13527                       # Number of conflicting stores. (Count)
system.cpu.MemDepUnit__1.insertedLoads              0                       # Number of loads inserted to the mem dependence unit. (Count)
system.cpu.MemDepUnit__1.insertedStores             0                       # Number of stores inserted to the mem dependence unit. (Count)
system.cpu.MemDepUnit__1.conflictingLoads            0                       # Number of conflicting loads. (Count)
system.cpu.MemDepUnit__1.conflictingStores            0                       # Number of conflicting stores. (Count)
system.cpu.MemDepUnit__2.insertedLoads              0                       # Number of loads inserted to the mem dependence unit. (Count)
system.cpu.MemDepUnit__2.insertedStores             0                       # Number of stores inserted to the mem dependence unit. (Count)
system.cpu.MemDepUnit__2.conflictingLoads            0                       # Number of conflicting loads. (Count)
system.cpu.MemDepUnit__2.conflictingStores            0                       # Number of conflicting stores. (Count)
system.cpu.MemDepUnit__3.insertedLoads              0                       # Number of loads inserted to the mem dependence unit. (Count)
system.cpu.MemDepUnit__3.insertedStores             0                       # Number of stores inserted to the mem dependence unit. (Count)
system.cpu.MemDepUnit__3.conflictingLoads            0                       # Number of conflicting loads. (Count)
system.cpu.MemDepUnit__3.conflictingStores            0                       # Number of conflicting stores. (Count)
system.cpu.branchPred.lookups                 4191067                       # Number of BP lookups (Count)
system.cpu.branchPred.condPredicted           4116146                       # Number of conditional branches predicted (Count)
system.cpu.branchPred.condIncorrect             18849                       # Number of conditional branches incorrect (Count)
system.cpu.branchPred.BTBLookups              2850460                       # Number of BTB lookups (Count)
system.cpu.branchPred.BTBUpdates                 8130                       # Number of BTB updates (Count)
system.cpu.branchPred.BTBHits                 2847251                       # Number of BTB hits (Count)
system.cpu.branchPred.BTBHitRatio            0.998874                       # BTB Hit Ratio (Ratio)
system.cpu.branchPred.RASUsed                   17653                       # Number of times the RAS was used to get a target. (Count)
system.cpu.branchPred.RASIncorrect                 43                       # Number of incorrect RAS predictions. (Count)
system.cpu.branchPred.indirectLookups            6751                       # Number of indirect predictor lookups. (Count)
system.cpu.branchPred.indirectHits               1332                       # Number of indirect target hits. (Count)
system.cpu.branchPred.indirectMisses             5419                       # Number of indirect misses. (Count)
system.cpu.branchPred.indirectMispredicted          689                       # Number of mispredicted indirect branches. (Count)
system.cpu.commit.commitSquashedInsts          966543                       # The number of squashed insts skipped by commit (Count)
system.cpu.commit.commitNonSpecStalls             273                       # The number of times commit has been forced to stall to communicate backwards (Count)
system.cpu.commit.branchMispredicts             18542                       # The number of times a branch was mispredicted (Count)
system.cpu.commit.numCommittedDist::samples     21741125                       # Number of insts commited each cycle (Count)
system.cpu.commit.numCommittedDist::mean     0.837225                       # Number of insts commited each cycle (Count)
system.cpu.commit.numCommittedDist::stdev     1.698989                       # Number of insts commited each cycle (Count)
system.cpu.commit.numCommittedDist::underflows            0      0.00%      0.00% # Number of insts commited each cycle (Count)
system.cpu.commit.numCommittedDist::0        15359521     70.65%     70.65% # Number of insts commited each cycle (Count)
system.cpu.commit.numCommittedDist::1         1981398      9.11%     79.76% # Number of insts commited each cycle (Count)
system.cpu.commit.numCommittedDist::2         1318444      6.06%     85.83% # Number of insts commited each cycle (Count)
system.cpu.commit.numCommittedDist::3         1367379      6.29%     92.11% # Number of insts commited each cycle (Count)
system.cpu.commit.numCommittedDist::4          998958      4.59%     96.71% # Number of insts commited each cycle (Count)
system.cpu.commit.numCommittedDist::5           30039      0.14%     96.85% # Number of insts commited each cycle (Count)
system.cpu.commit.numCommittedDist::6           22828      0.10%     96.95% # Number of insts commited each cycle (Count)
system.cpu.commit.numCommittedDist::7          101659      0.47%     97.42% # Number of insts commited each cycle (Count)
system.cpu.commit.numCommittedDist::8          560899      2.58%    100.00% # Number of insts commited each cycle (Count)
system.cpu.commit.numCommittedDist::overflows            0      0.00%    100.00% # Number of insts commited each cycle (Count)
system.cpu.commit.numCommittedDist::min_value            0                       # Number of insts commited each cycle (Count)
system.cpu.commit.numCommittedDist::max_value            8                       # Number of insts commited each cycle (Count)
system.cpu.commit.numCommittedDist::total     21741125                       # Number of insts commited each cycle (Count)
system.cpu.commit.instsCommitted             17808183                       # Number of instructions committed (Count)
system.cpu.commit.opsCommitted               18202223                       # Number of ops (including micro ops) committed (Count)
system.cpu.commit.memRefs                      743597                       # Number of memory references committed (Count)
system.cpu.commit.loads                        543809                       # Number of loads committed (Count)
system.cpu.commit.amos                            104                       # Number of atomic instructions committed (Count)
system.cpu.commit.membars                         112                       # Number of memory barriers committed (Count)
system.cpu.commit.branches                    3903965                       # Number of branches committed (Count)
system.cpu.commit.vectorInstructions           373703                       # Number of committed Vector instructions. (Count)
system.cpu.commit.floating                          0                       # Number of committed floating point instructions. (Count)
system.cpu.commit.integer                    16107299                       # Number of committed integer instructions. (Count)
system.cpu.commit.functionCalls                 11075                       # Number of function calls committed. (Count)
system.cpu.commit.committedInstType_0::No_OpClass        61185      0.34%      0.34% # Class of committed instruction (Count)
system.cpu.commit.committedInstType_0::IntAlu     13403427     73.64%     73.97% # Class of committed instruction (Count)
system.cpu.commit.committedInstType_0::IntMult      1910792     10.50%     84.47% # Class of committed instruction (Count)
system.cpu.commit.committedInstType_0::IntDiv      1895371     10.41%     94.88% # Class of committed instruction (Count)
system.cpu.commit.committedInstType_0::FloatAdd            0      0.00%     94.88% # Class of committed instruction (Count)
system.cpu.commit.committedInstType_0::FloatCmp            2      0.00%     94.88% # Class of committed instruction (Count)
system.cpu.commit.committedInstType_0::FloatCvt            1      0.00%     94.88% # Class of committed instruction (Count)
system.cpu.commit.committedInstType_0::FloatMult            1      0.00%     94.88% # Class of committed instruction (Count)
system.cpu.commit.committedInstType_0::FloatMultAcc            0      0.00%     94.88% # Class of committed instruction (Count)
system.cpu.commit.committedInstType_0::FloatDiv            1      0.00%     94.88% # Class of committed instruction (Count)
system.cpu.commit.committedInstType_0::FloatMisc            7      0.00%     94.88% # Class of committed instruction (Count)
system.cpu.commit.committedInstType_0::FloatSqrt            0      0.00%     94.88% # Class of committed instruction (Count)
system.cpu.commit.committedInstType_0::SimdAdd        21840      0.12%     95.00% # Class of committed instruction (Count)
system.cpu.commit.committedInstType_0::SimdAddAcc            0      0.00%     95.00% # Class of committed instruction (Count)
system.cpu.commit.committedInstType_0::SimdAlu       144032      0.79%     95.79% # Class of committed instruction (Count)
system.cpu.commit.committedInstType_0::SimdCmp          101      0.00%     95.79% # Class of committed instruction (Count)
system.cpu.commit.committedInstType_0::SimdCvt            0      0.00%     95.79% # Class of committed instruction (Count)
system.cpu.commit.committedInstType_0::SimdMisc        21866      0.12%     95.91% # Class of committed instruction (Count)
system.cpu.commit.committedInstType_0::SimdMult            0      0.00%     95.91% # Class of committed instruction (Count)
system.cpu.commit.committedInstType_0::SimdMultAcc            0      0.00%     95.91% # Class of committed instruction (Count)
system.cpu.commit.committedInstType_0::SimdShift            0      0.00%     95.91% # Class of committed instruction (Count)
system.cpu.commit.committedInstType_0::SimdShiftAcc            0      0.00%     95.91% # Class of committed instruction (Count)
system.cpu.commit.committedInstType_0::SimdDiv            0      0.00%     95.91% # Class of committed instruction (Count)
system.cpu.commit.committedInstType_0::SimdSqrt            0      0.00%     95.91% # Class of committed instruction (Count)
system.cpu.commit.committedInstType_0::SimdFloatAdd            0      0.00%     95.91% # Class of committed instruction (Count)
system.cpu.commit.committedInstType_0::SimdFloatAlu            0      0.00%     95.91% # Class of committed instruction (Count)
system.cpu.commit.committedInstType_0::SimdFloatCmp            0      0.00%     95.91% # Class of committed instruction (Count)
system.cpu.commit.committedInstType_0::SimdFloatCvt            0      0.00%     95.91% # Class of committed instruction (Count)
system.cpu.commit.committedInstType_0::SimdFloatDiv            0      0.00%     95.91% # Class of committed instruction (Count)
system.cpu.commit.committedInstType_0::SimdFloatMisc            0      0.00%     95.91% # Class of committed instruction (Count)
system.cpu.commit.committedInstType_0::SimdFloatMult            0      0.00%     95.91% # Class of committed instruction (Count)
system.cpu.commit.committedInstType_0::SimdFloatMultAcc            0      0.00%     95.91% # Class of committed instruction (Count)
system.cpu.commit.committedInstType_0::SimdFloatSqrt            0      0.00%     95.91% # Class of committed instruction (Count)
system.cpu.commit.committedInstType_0::SimdReduceAdd            0      0.00%     95.91% # Class of committed instruction (Count)
system.cpu.commit.committedInstType_0::SimdReduceAlu            0      0.00%     95.91% # Class of committed instruction (Count)
system.cpu.commit.committedInstType_0::SimdReduceCmp            0      0.00%     95.91% # Class of committed instruction (Count)
system.cpu.commit.committedInstType_0::SimdFloatReduceAdd            0      0.00%     95.91% # Class of committed instruction (Count)
system.cpu.commit.committedInstType_0::SimdFloatReduceCmp            0      0.00%     95.91% # Class of committed instruction (Count)
system.cpu.commit.committedInstType_0::SimdAes            0      0.00%     95.91% # Class of committed instruction (Count)
system.cpu.commit.committedInstType_0::SimdAesMix            0      0.00%     95.91% # Class of committed instruction (Count)
system.cpu.commit.committedInstType_0::SimdSha1Hash            0      0.00%     95.91% # Class of committed instruction (Count)
system.cpu.commit.committedInstType_0::SimdSha1Hash2            0      0.00%     95.91% # Class of committed instruction (Count)
system.cpu.commit.committedInstType_0::SimdSha256Hash            0      0.00%     95.91% # Class of committed instruction (Count)
system.cpu.commit.committedInstType_0::SimdSha256Hash2            0      0.00%     95.91% # Class of committed instruction (Count)
system.cpu.commit.committedInstType_0::SimdShaSigma2            0      0.00%     95.91% # Class of committed instruction (Count)
system.cpu.commit.committedInstType_0::SimdShaSigma3            0      0.00%     95.91% # Class of committed instruction (Count)
system.cpu.commit.committedInstType_0::SimdPredAlu            0      0.00%     95.91% # Class of committed instruction (Count)
system.cpu.commit.committedInstType_0::MemRead       543809      2.99%     98.90% # Class of committed instruction (Count)
system.cpu.commit.committedInstType_0::MemWrite       199788      1.10%    100.00% # Class of committed instruction (Count)
system.cpu.commit.committedInstType_0::FloatMemRead            0      0.00%    100.00% # Class of committed instruction (Count)
system.cpu.commit.committedInstType_0::FloatMemWrite            0      0.00%    100.00% # Class of committed instruction (Count)
system.cpu.commit.committedInstType_0::IprAccess            0      0.00%    100.00% # Class of committed instruction (Count)
system.cpu.commit.committedInstType_0::InstPrefetch            0      0.00%    100.00% # Class of committed instruction (Count)
system.cpu.commit.committedInstType_0::total     18202223                       # Class of committed instruction (Count)
system.cpu.commit.commitEligibleSamples        560899                       # number cycles where commit BW limit reached (Cycle)
system.cpu.dcache.demandHits::cpu.data         703225                       # number of demand (read+write) hits (Count)
system.cpu.dcache.demandHits::total            703225                       # number of demand (read+write) hits (Count)
system.cpu.dcache.overallHits::cpu.data        703225                       # number of overall hits (Count)
system.cpu.dcache.overallHits::total           703225                       # number of overall hits (Count)
system.cpu.dcache.demandMisses::cpu.data        92844                       # number of demand (read+write) misses (Count)
system.cpu.dcache.demandMisses::total           92844                       # number of demand (read+write) misses (Count)
system.cpu.dcache.overallMisses::cpu.data        92844                       # number of overall misses (Count)
system.cpu.dcache.overallMisses::total          92844                       # number of overall misses (Count)
system.cpu.dcache.demandMissLatency::cpu.data   4873917986                       # number of demand (read+write) miss ticks (Tick)
system.cpu.dcache.demandMissLatency::total   4873917986                       # number of demand (read+write) miss ticks (Tick)
system.cpu.dcache.overallMissLatency::cpu.data   4873917986                       # number of overall miss ticks (Tick)
system.cpu.dcache.overallMissLatency::total   4873917986                       # number of overall miss ticks (Tick)
system.cpu.dcache.demandAccesses::cpu.data       796069                       # number of demand (read+write) accesses (Count)
system.cpu.dcache.demandAccesses::total        796069                       # number of demand (read+write) accesses (Count)
system.cpu.dcache.overallAccesses::cpu.data       796069                       # number of overall (read+write) accesses (Count)
system.cpu.dcache.overallAccesses::total       796069                       # number of overall (read+write) accesses (Count)
system.cpu.dcache.demandMissRate::cpu.data     0.116628                       # miss rate for demand accesses (Ratio)
system.cpu.dcache.demandMissRate::total      0.116628                       # miss rate for demand accesses (Ratio)
system.cpu.dcache.overallMissRate::cpu.data     0.116628                       # miss rate for overall accesses (Ratio)
system.cpu.dcache.overallMissRate::total     0.116628                       # miss rate for overall accesses (Ratio)
system.cpu.dcache.demandAvgMissLatency::cpu.data 52495.777713                       # average overall miss latency in ticks ((Tick/Count))
system.cpu.dcache.demandAvgMissLatency::total 52495.777713                       # average overall miss latency in ticks ((Tick/Count))
system.cpu.dcache.overallAvgMissLatency::cpu.data 52495.777713                       # average overall miss latency ((Tick/Count))
system.cpu.dcache.overallAvgMissLatency::total 52495.777713                       # average overall miss latency ((Tick/Count))
system.cpu.dcache.blockedCycles::no_mshrs        93293                       # number of cycles access was blocked (Cycle)
system.cpu.dcache.blockedCycles::no_targets          523                       # number of cycles access was blocked (Cycle)
system.cpu.dcache.blockedCauses::no_mshrs         2073                       # number of times access was blocked (Count)
system.cpu.dcache.blockedCauses::no_targets           12                       # number of times access was blocked (Count)
system.cpu.dcache.avgBlocked::no_mshrs      45.003859                       # average number of cycles each access was blocked ((Cycle/Count))
system.cpu.dcache.avgBlocked::no_targets    43.583333                       # average number of cycles each access was blocked ((Cycle/Count))
system.cpu.dcache.writebacks::writebacks         3421                       # number of writebacks (Count)
system.cpu.dcache.writebacks::total              3421                       # number of writebacks (Count)
system.cpu.dcache.demandMshrHits::cpu.data        50966                       # number of demand (read+write) MSHR hits (Count)
system.cpu.dcache.demandMshrHits::total         50966                       # number of demand (read+write) MSHR hits (Count)
system.cpu.dcache.overallMshrHits::cpu.data        50966                       # number of overall MSHR hits (Count)
system.cpu.dcache.overallMshrHits::total        50966                       # number of overall MSHR hits (Count)
system.cpu.dcache.demandMshrMisses::cpu.data        41878                       # number of demand (read+write) MSHR misses (Count)
system.cpu.dcache.demandMshrMisses::total        41878                       # number of demand (read+write) MSHR misses (Count)
system.cpu.dcache.overallMshrMisses::cpu.data        41878                       # number of overall MSHR misses (Count)
system.cpu.dcache.overallMshrMisses::total        41878                       # number of overall MSHR misses (Count)
system.cpu.dcache.demandMshrMissLatency::cpu.data   1453134700                       # number of demand (read+write) MSHR miss ticks (Tick)
system.cpu.dcache.demandMshrMissLatency::total   1453134700                       # number of demand (read+write) MSHR miss ticks (Tick)
system.cpu.dcache.overallMshrMissLatency::cpu.data   1453134700                       # number of overall MSHR miss ticks (Tick)
system.cpu.dcache.overallMshrMissLatency::total   1453134700                       # number of overall MSHR miss ticks (Tick)
system.cpu.dcache.demandMshrMissRate::cpu.data     0.052606                       # mshr miss ratio for demand accesses (Ratio)
system.cpu.dcache.demandMshrMissRate::total     0.052606                       # mshr miss ratio for demand accesses (Ratio)
system.cpu.dcache.overallMshrMissRate::cpu.data     0.052606                       # mshr miss ratio for overall accesses (Ratio)
system.cpu.dcache.overallMshrMissRate::total     0.052606                       # mshr miss ratio for overall accesses (Ratio)
system.cpu.dcache.demandAvgMshrMissLatency::cpu.data 34699.238264                       # average overall mshr miss latency ((Tick/Count))
system.cpu.dcache.demandAvgMshrMissLatency::total 34699.238264                       # average overall mshr miss latency ((Tick/Count))
system.cpu.dcache.overallAvgMshrMissLatency::cpu.data 34699.238264                       # average overall mshr miss latency ((Tick/Count))
system.cpu.dcache.overallAvgMshrMissLatency::total 34699.238264                       # average overall mshr miss latency ((Tick/Count))
system.cpu.dcache.replacements                  40859                       # number of replacements (Count)
system.cpu.dcache.ReadReq.hits::cpu.data       509356                       # number of ReadReq hits (Count)
system.cpu.dcache.ReadReq.hits::total          509356                       # number of ReadReq hits (Count)
system.cpu.dcache.ReadReq.misses::cpu.data        87015                       # number of ReadReq misses (Count)
system.cpu.dcache.ReadReq.misses::total         87015                       # number of ReadReq misses (Count)
system.cpu.dcache.ReadReq.missLatency::cpu.data   4535903500                       # number of ReadReq miss ticks (Tick)
system.cpu.dcache.ReadReq.missLatency::total   4535903500                       # number of ReadReq miss ticks (Tick)
system.cpu.dcache.ReadReq.accesses::cpu.data       596371                       # number of ReadReq accesses(hits+misses) (Count)
system.cpu.dcache.ReadReq.accesses::total       596371                       # number of ReadReq accesses(hits+misses) (Count)
system.cpu.dcache.ReadReq.missRate::cpu.data     0.145907                       # miss rate for ReadReq accesses (Ratio)
system.cpu.dcache.ReadReq.missRate::total     0.145907                       # miss rate for ReadReq accesses (Ratio)
system.cpu.dcache.ReadReq.avgMissLatency::cpu.data 52127.834281                       # average ReadReq miss latency ((Tick/Count))
system.cpu.dcache.ReadReq.avgMissLatency::total 52127.834281                       # average ReadReq miss latency ((Tick/Count))
system.cpu.dcache.ReadReq.mshrHits::cpu.data        47428                       # number of ReadReq MSHR hits (Count)
system.cpu.dcache.ReadReq.mshrHits::total        47428                       # number of ReadReq MSHR hits (Count)
system.cpu.dcache.ReadReq.mshrMisses::cpu.data        39587                       # number of ReadReq MSHR misses (Count)
system.cpu.dcache.ReadReq.mshrMisses::total        39587                       # number of ReadReq MSHR misses (Count)
system.cpu.dcache.ReadReq.mshrMissLatency::cpu.data   1318645500                       # number of ReadReq MSHR miss ticks (Tick)
system.cpu.dcache.ReadReq.mshrMissLatency::total   1318645500                       # number of ReadReq MSHR miss ticks (Tick)
system.cpu.dcache.ReadReq.mshrMissRate::cpu.data     0.066380                       # mshr miss rate for ReadReq accesses (Ratio)
system.cpu.dcache.ReadReq.mshrMissRate::total     0.066380                       # mshr miss rate for ReadReq accesses (Ratio)
system.cpu.dcache.ReadReq.avgMshrMissLatency::cpu.data 33310.063910                       # average ReadReq mshr miss latency ((Tick/Count))
system.cpu.dcache.ReadReq.avgMshrMissLatency::total 33310.063910                       # average ReadReq mshr miss latency ((Tick/Count))
system.cpu.dcache.SwapReq.hits::cpu.data           99                       # number of SwapReq hits (Count)
system.cpu.dcache.SwapReq.hits::total              99                       # number of SwapReq hits (Count)
system.cpu.dcache.SwapReq.misses::cpu.data            5                       # number of SwapReq misses (Count)
system.cpu.dcache.SwapReq.misses::total             5                       # number of SwapReq misses (Count)
system.cpu.dcache.SwapReq.missLatency::cpu.data       239500                       # number of SwapReq miss ticks (Tick)
system.cpu.dcache.SwapReq.missLatency::total       239500                       # number of SwapReq miss ticks (Tick)
system.cpu.dcache.SwapReq.accesses::cpu.data          104                       # number of SwapReq accesses(hits+misses) (Count)
system.cpu.dcache.SwapReq.accesses::total          104                       # number of SwapReq accesses(hits+misses) (Count)
system.cpu.dcache.SwapReq.missRate::cpu.data     0.048077                       # miss rate for SwapReq accesses (Ratio)
system.cpu.dcache.SwapReq.missRate::total     0.048077                       # miss rate for SwapReq accesses (Ratio)
system.cpu.dcache.SwapReq.avgMissLatency::cpu.data        47900                       # average SwapReq miss latency ((Tick/Count))
system.cpu.dcache.SwapReq.avgMissLatency::total        47900                       # average SwapReq miss latency ((Tick/Count))
system.cpu.dcache.SwapReq.mshrMisses::cpu.data            5                       # number of SwapReq MSHR misses (Count)
system.cpu.dcache.SwapReq.mshrMisses::total            5                       # number of SwapReq MSHR misses (Count)
system.cpu.dcache.SwapReq.mshrMissLatency::cpu.data       234500                       # number of SwapReq MSHR miss ticks (Tick)
system.cpu.dcache.SwapReq.mshrMissLatency::total       234500                       # number of SwapReq MSHR miss ticks (Tick)
system.cpu.dcache.SwapReq.mshrMissRate::cpu.data     0.048077                       # mshr miss rate for SwapReq accesses (Ratio)
system.cpu.dcache.SwapReq.mshrMissRate::total     0.048077                       # mshr miss rate for SwapReq accesses (Ratio)
system.cpu.dcache.SwapReq.avgMshrMissLatency::cpu.data        46900                       # average SwapReq mshr miss latency ((Tick/Count))
system.cpu.dcache.SwapReq.avgMshrMissLatency::total        46900                       # average SwapReq mshr miss latency ((Tick/Count))
system.cpu.dcache.WriteLineReq.misses::cpu.data          131                       # number of WriteLineReq misses (Count)
system.cpu.dcache.WriteLineReq.misses::total          131                       # number of WriteLineReq misses (Count)
system.cpu.dcache.WriteLineReq.missLatency::cpu.data      4175908                       # number of WriteLineReq miss ticks (Tick)
system.cpu.dcache.WriteLineReq.missLatency::total      4175908                       # number of WriteLineReq miss ticks (Tick)
system.cpu.dcache.WriteLineReq.accesses::cpu.data          131                       # number of WriteLineReq accesses(hits+misses) (Count)
system.cpu.dcache.WriteLineReq.accesses::total          131                       # number of WriteLineReq accesses(hits+misses) (Count)
system.cpu.dcache.WriteLineReq.missRate::cpu.data            1                       # miss rate for WriteLineReq accesses (Ratio)
system.cpu.dcache.WriteLineReq.missRate::total            1                       # miss rate for WriteLineReq accesses (Ratio)
system.cpu.dcache.WriteLineReq.avgMissLatency::cpu.data 31877.160305                       # average WriteLineReq miss latency ((Tick/Count))
system.cpu.dcache.WriteLineReq.avgMissLatency::total 31877.160305                       # average WriteLineReq miss latency ((Tick/Count))
system.cpu.dcache.WriteLineReq.mshrMisses::cpu.data          131                       # number of WriteLineReq MSHR misses (Count)
system.cpu.dcache.WriteLineReq.mshrMisses::total          131                       # number of WriteLineReq MSHR misses (Count)
system.cpu.dcache.WriteLineReq.mshrMissLatency::cpu.data      4044908                       # number of WriteLineReq MSHR miss ticks (Tick)
system.cpu.dcache.WriteLineReq.mshrMissLatency::total      4044908                       # number of WriteLineReq MSHR miss ticks (Tick)
system.cpu.dcache.WriteLineReq.mshrMissRate::cpu.data            1                       # mshr miss rate for WriteLineReq accesses (Ratio)
system.cpu.dcache.WriteLineReq.mshrMissRate::total            1                       # mshr miss rate for WriteLineReq accesses (Ratio)
system.cpu.dcache.WriteLineReq.avgMshrMissLatency::cpu.data 30877.160305                       # average WriteLineReq mshr miss latency ((Tick/Count))
system.cpu.dcache.WriteLineReq.avgMshrMissLatency::total 30877.160305                       # average WriteLineReq mshr miss latency ((Tick/Count))
system.cpu.dcache.WriteReq.hits::cpu.data       193869                       # number of WriteReq hits (Count)
system.cpu.dcache.WriteReq.hits::total         193869                       # number of WriteReq hits (Count)
system.cpu.dcache.WriteReq.misses::cpu.data         5698                       # number of WriteReq misses (Count)
system.cpu.dcache.WriteReq.misses::total         5698                       # number of WriteReq misses (Count)
system.cpu.dcache.WriteReq.missLatency::cpu.data    333838578                       # number of WriteReq miss ticks (Tick)
system.cpu.dcache.WriteReq.missLatency::total    333838578                       # number of WriteReq miss ticks (Tick)
system.cpu.dcache.WriteReq.accesses::cpu.data       199567                       # number of WriteReq accesses(hits+misses) (Count)
system.cpu.dcache.WriteReq.accesses::total       199567                       # number of WriteReq accesses(hits+misses) (Count)
system.cpu.dcache.WriteReq.missRate::cpu.data     0.028552                       # miss rate for WriteReq accesses (Ratio)
system.cpu.dcache.WriteReq.missRate::total     0.028552                       # miss rate for WriteReq accesses (Ratio)
system.cpu.dcache.WriteReq.avgMissLatency::cpu.data 58588.729028                       # average WriteReq miss latency ((Tick/Count))
system.cpu.dcache.WriteReq.avgMissLatency::total 58588.729028                       # average WriteReq miss latency ((Tick/Count))
system.cpu.dcache.WriteReq.mshrHits::cpu.data         3538                       # number of WriteReq MSHR hits (Count)
system.cpu.dcache.WriteReq.mshrHits::total         3538                       # number of WriteReq MSHR hits (Count)
system.cpu.dcache.WriteReq.mshrMisses::cpu.data         2160                       # number of WriteReq MSHR misses (Count)
system.cpu.dcache.WriteReq.mshrMisses::total         2160                       # number of WriteReq MSHR misses (Count)
system.cpu.dcache.WriteReq.mshrMissLatency::cpu.data    130444292                       # number of WriteReq MSHR miss ticks (Tick)
system.cpu.dcache.WriteReq.mshrMissLatency::total    130444292                       # number of WriteReq MSHR miss ticks (Tick)
system.cpu.dcache.WriteReq.mshrMissRate::cpu.data     0.010823                       # mshr miss rate for WriteReq accesses (Ratio)
system.cpu.dcache.WriteReq.mshrMissRate::total     0.010823                       # mshr miss rate for WriteReq accesses (Ratio)
system.cpu.dcache.WriteReq.avgMshrMissLatency::cpu.data 60390.875926                       # average WriteReq mshr miss latency ((Tick/Count))
system.cpu.dcache.WriteReq.avgMshrMissLatency::total 60390.875926                       # average WriteReq mshr miss latency ((Tick/Count))
system.cpu.dcache.power_state.pwrStateResidencyTicks::UNDEFINED  11018060000                       # Cumulative time (in ticks) in various power states (Tick)
system.cpu.dcache.tags.tagsInUse          1020.597835                       # Average ticks per tags in use ((Tick/Count))
system.cpu.dcache.tags.totalRefs               745207                       # Total number of references to valid blocks. (Count)
system.cpu.dcache.tags.sampledRefs              41883                       # Sample count of references to valid blocks. (Count)
system.cpu.dcache.tags.avgRefs              17.792589                       # Average number of references to valid blocks. ((Count/Count))
system.cpu.dcache.tags.warmupTick              253500                       # The tick when the warmup percentage was hit. (Tick)
system.cpu.dcache.tags.occupancies::cpu.data  1020.597835                       # Average occupied blocks per tick, per requestor ((Count/Tick))
system.cpu.dcache.tags.avgOccs::cpu.data     0.996678                       # Average percentage of cache occupancy ((Ratio/Tick))
system.cpu.dcache.tags.avgOccs::total        0.996678                       # Average percentage of cache occupancy ((Ratio/Tick))
system.cpu.dcache.tags.occupanciesTaskId::1024         1024                       # Occupied blocks per task id (Count)
system.cpu.dcache.tags.ageTaskId_1024::0           89                       # Occupied blocks per task id, per block age (Count)
system.cpu.dcache.tags.ageTaskId_1024::1          487                       # Occupied blocks per task id, per block age (Count)
system.cpu.dcache.tags.ageTaskId_1024::2          447                       # Occupied blocks per task id, per block age (Count)
system.cpu.dcache.tags.ageTaskId_1024::4            1                       # Occupied blocks per task id, per block age (Count)
system.cpu.dcache.tags.ratioOccsTaskId::1024            1                       # Ratio of occupied blocks and all blocks, per task id (Ratio)
system.cpu.dcache.tags.tagAccesses            3226575                       # Number of tag accesses (Count)
system.cpu.dcache.tags.dataAccesses           3226575                       # Number of data accesses (Count)
system.cpu.dcache.tags.power_state.pwrStateResidencyTicks::UNDEFINED  11018060000                       # Cumulative time (in ticks) in various power states (Tick)
system.cpu.decode.idleCycles                  1002260                       # Number of cycles decode is idle (Cycle)
system.cpu.decode.blockedCycles              18273898                       # Number of cycles decode is blocked (Cycle)
system.cpu.decode.runCycles                    506138                       # Number of cycles decode is running (Cycle)
system.cpu.decode.unblockCycles               2079415                       # Number of cycles decode is unblocking (Cycle)
system.cpu.decode.squashCycles                  19015                       # Number of cycles decode is squashing (Cycle)
system.cpu.decode.branchResolved              2807237                       # Number of times decode resolved a branch (Count)
system.cpu.decode.branchMispred                   914                       # Number of times decode detected a branch misprediction (Count)
system.cpu.decode.decodedInsts               19330730                       # Number of instructions handled by decode (Count)
system.cpu.decode.squashedInsts                  3138                       # Number of squashed instructions handled by decode (Count)
system.cpu.fetch.icacheStallCycles            4271923                       # Number of cycles fetch is stalled on an Icache miss (Cycle)
system.cpu.fetch.insts                       19134916                       # Number of instructions fetch has processed (Count)
system.cpu.fetch.branches                     4191067                       # Number of branches that fetch encountered (Count)
system.cpu.fetch.predictedBranches            2866236                       # Number of branches that fetch has predicted taken (Count)
system.cpu.fetch.cycles                      17583883                       # Number of cycles fetch has run and was not squashing or blocked (Cycle)
system.cpu.fetch.squashCycles                   39806                       # Number of cycles fetch has spent squashing (Cycle)
system.cpu.fetch.miscStallCycles                  736                       # Number of cycles fetch has spent waiting on interrupts, or bad addresses, or out of MSHRs (Cycle)
system.cpu.fetch.pendingTrapStallCycles          4186                       # Number of stall cycles due to pending traps (Cycle)
system.cpu.fetch.icacheWaitRetryStallCycles           95                       # Number of stall cycles due to full MSHR (Cycle)
system.cpu.fetch.cacheLines                   4218792                       # Number of cache lines fetched (Count)
system.cpu.fetch.icacheSquashes                  5689                       # Number of outstanding Icache misses that were squashed (Count)
system.cpu.fetch.nisnDist::samples           21880726                       # Number of instructions fetched each cycle (Total) (Count)
system.cpu.fetch.nisnDist::mean              0.897749                       # Number of instructions fetched each cycle (Total) (Count)
system.cpu.fetch.nisnDist::stdev             1.812535                       # Number of instructions fetched each cycle (Total) (Count)
system.cpu.fetch.nisnDist::underflows               0      0.00%      0.00% # Number of instructions fetched each cycle (Total) (Count)
system.cpu.fetch.nisnDist::0                 16393124     74.92%     74.92% # Number of instructions fetched each cycle (Total) (Count)
system.cpu.fetch.nisnDist::1                   607848      2.78%     77.70% # Number of instructions fetched each cycle (Total) (Count)
system.cpu.fetch.nisnDist::2                  1129724      5.16%     82.86% # Number of instructions fetched each cycle (Total) (Count)
system.cpu.fetch.nisnDist::3                  1285633      5.88%     88.74% # Number of instructions fetched each cycle (Total) (Count)
system.cpu.fetch.nisnDist::4                  1021559      4.67%     93.41% # Number of instructions fetched each cycle (Total) (Count)
system.cpu.fetch.nisnDist::5                   714330      3.26%     96.67% # Number of instructions fetched each cycle (Total) (Count)
system.cpu.fetch.nisnDist::6                   247654      1.13%     97.80% # Number of instructions fetched each cycle (Total) (Count)
system.cpu.fetch.nisnDist::7                    71439      0.33%     98.13% # Number of instructions fetched each cycle (Total) (Count)
system.cpu.fetch.nisnDist::8                   409415      1.87%    100.00% # Number of instructions fetched each cycle (Total) (Count)
system.cpu.fetch.nisnDist::overflows                0      0.00%    100.00% # Number of instructions fetched each cycle (Total) (Count)
system.cpu.fetch.nisnDist::min_value                0                       # Number of instructions fetched each cycle (Total) (Count)
system.cpu.fetch.nisnDist::max_value                8                       # Number of instructions fetched each cycle (Total) (Count)
system.cpu.fetch.nisnDist::total             21880726                       # Number of instructions fetched each cycle (Total) (Count)
system.cpu.fetch.branchRate                  0.190191                       # Number of branch fetches per cycle (Ratio)
system.cpu.fetch.rate                        0.868343                       # Number of inst fetches per cycle ((Count/Cycle))
system.cpu.icache.demandHits::cpu.inst        4215840                       # number of demand (read+write) hits (Count)
system.cpu.icache.demandHits::total           4215840                       # number of demand (read+write) hits (Count)
system.cpu.icache.overallHits::cpu.inst       4215840                       # number of overall hits (Count)
system.cpu.icache.overallHits::total          4215840                       # number of overall hits (Count)
system.cpu.icache.demandMisses::cpu.inst         2951                       # number of demand (read+write) misses (Count)
system.cpu.icache.demandMisses::total            2951                       # number of demand (read+write) misses (Count)
system.cpu.icache.overallMisses::cpu.inst         2951                       # number of overall misses (Count)
system.cpu.icache.overallMisses::total           2951                       # number of overall misses (Count)
system.cpu.icache.demandMissLatency::cpu.inst    195499498                       # number of demand (read+write) miss ticks (Tick)
system.cpu.icache.demandMissLatency::total    195499498                       # number of demand (read+write) miss ticks (Tick)
system.cpu.icache.overallMissLatency::cpu.inst    195499498                       # number of overall miss ticks (Tick)
system.cpu.icache.overallMissLatency::total    195499498                       # number of overall miss ticks (Tick)
system.cpu.icache.demandAccesses::cpu.inst      4218791                       # number of demand (read+write) accesses (Count)
system.cpu.icache.demandAccesses::total       4218791                       # number of demand (read+write) accesses (Count)
system.cpu.icache.overallAccesses::cpu.inst      4218791                       # number of overall (read+write) accesses (Count)
system.cpu.icache.overallAccesses::total      4218791                       # number of overall (read+write) accesses (Count)
system.cpu.icache.demandMissRate::cpu.inst     0.000699                       # miss rate for demand accesses (Ratio)
system.cpu.icache.demandMissRate::total      0.000699                       # miss rate for demand accesses (Ratio)
system.cpu.icache.overallMissRate::cpu.inst     0.000699                       # miss rate for overall accesses (Ratio)
system.cpu.icache.overallMissRate::total     0.000699                       # miss rate for overall accesses (Ratio)
system.cpu.icache.demandAvgMissLatency::cpu.inst 66248.559132                       # average overall miss latency in ticks ((Tick/Count))
system.cpu.icache.demandAvgMissLatency::total 66248.559132                       # average overall miss latency in ticks ((Tick/Count))
system.cpu.icache.overallAvgMissLatency::cpu.inst 66248.559132                       # average overall miss latency ((Tick/Count))
system.cpu.icache.overallAvgMissLatency::total 66248.559132                       # average overall miss latency ((Tick/Count))
system.cpu.icache.blockedCycles::no_mshrs         1238                       # number of cycles access was blocked (Cycle)
system.cpu.icache.blockedCycles::no_targets            0                       # number of cycles access was blocked (Cycle)
system.cpu.icache.blockedCauses::no_mshrs           18                       # number of times access was blocked (Count)
system.cpu.icache.blockedCauses::no_targets            0                       # number of times access was blocked (Count)
system.cpu.icache.avgBlocked::no_mshrs      68.777778                       # average number of cycles each access was blocked ((Cycle/Count))
system.cpu.icache.avgBlocked::no_targets          nan                       # average number of cycles each access was blocked ((Cycle/Count))
system.cpu.icache.writebacks::writebacks         2053                       # number of writebacks (Count)
system.cpu.icache.writebacks::total              2053                       # number of writebacks (Count)
system.cpu.icache.demandMshrHits::cpu.inst          641                       # number of demand (read+write) MSHR hits (Count)
system.cpu.icache.demandMshrHits::total           641                       # number of demand (read+write) MSHR hits (Count)
system.cpu.icache.overallMshrHits::cpu.inst          641                       # number of overall MSHR hits (Count)
system.cpu.icache.overallMshrHits::total          641                       # number of overall MSHR hits (Count)
system.cpu.icache.demandMshrMisses::cpu.inst         2310                       # number of demand (read+write) MSHR misses (Count)
system.cpu.icache.demandMshrMisses::total         2310                       # number of demand (read+write) MSHR misses (Count)
system.cpu.icache.overallMshrMisses::cpu.inst         2310                       # number of overall MSHR misses (Count)
system.cpu.icache.overallMshrMisses::total         2310                       # number of overall MSHR misses (Count)
system.cpu.icache.demandMshrMissLatency::cpu.inst    154575499                       # number of demand (read+write) MSHR miss ticks (Tick)
system.cpu.icache.demandMshrMissLatency::total    154575499                       # number of demand (read+write) MSHR miss ticks (Tick)
system.cpu.icache.overallMshrMissLatency::cpu.inst    154575499                       # number of overall MSHR miss ticks (Tick)
system.cpu.icache.overallMshrMissLatency::total    154575499                       # number of overall MSHR miss ticks (Tick)
system.cpu.icache.demandMshrMissRate::cpu.inst     0.000548                       # mshr miss ratio for demand accesses (Ratio)
system.cpu.icache.demandMshrMissRate::total     0.000548                       # mshr miss ratio for demand accesses (Ratio)
system.cpu.icache.overallMshrMissRate::cpu.inst     0.000548                       # mshr miss ratio for overall accesses (Ratio)
system.cpu.icache.overallMshrMissRate::total     0.000548                       # mshr miss ratio for overall accesses (Ratio)
system.cpu.icache.demandAvgMshrMissLatency::cpu.inst 66915.800433                       # average overall mshr miss latency ((Tick/Count))
system.cpu.icache.demandAvgMshrMissLatency::total 66915.800433                       # average overall mshr miss latency ((Tick/Count))
system.cpu.icache.overallAvgMshrMissLatency::cpu.inst 66915.800433                       # average overall mshr miss latency ((Tick/Count))
system.cpu.icache.overallAvgMshrMissLatency::total 66915.800433                       # average overall mshr miss latency ((Tick/Count))
system.cpu.icache.replacements                   2053                       # number of replacements (Count)
system.cpu.icache.ReadReq.hits::cpu.inst      4215840                       # number of ReadReq hits (Count)
system.cpu.icache.ReadReq.hits::total         4215840                       # number of ReadReq hits (Count)
system.cpu.icache.ReadReq.misses::cpu.inst         2951                       # number of ReadReq misses (Count)
system.cpu.icache.ReadReq.misses::total          2951                       # number of ReadReq misses (Count)
system.cpu.icache.ReadReq.missLatency::cpu.inst    195499498                       # number of ReadReq miss ticks (Tick)
system.cpu.icache.ReadReq.missLatency::total    195499498                       # number of ReadReq miss ticks (Tick)
system.cpu.icache.ReadReq.accesses::cpu.inst      4218791                       # number of ReadReq accesses(hits+misses) (Count)
system.cpu.icache.ReadReq.accesses::total      4218791                       # number of ReadReq accesses(hits+misses) (Count)
system.cpu.icache.ReadReq.missRate::cpu.inst     0.000699                       # miss rate for ReadReq accesses (Ratio)
system.cpu.icache.ReadReq.missRate::total     0.000699                       # miss rate for ReadReq accesses (Ratio)
system.cpu.icache.ReadReq.avgMissLatency::cpu.inst 66248.559132                       # average ReadReq miss latency ((Tick/Count))
system.cpu.icache.ReadReq.avgMissLatency::total 66248.559132                       # average ReadReq miss latency ((Tick/Count))
system.cpu.icache.ReadReq.mshrHits::cpu.inst          641                       # number of ReadReq MSHR hits (Count)
system.cpu.icache.ReadReq.mshrHits::total          641                       # number of ReadReq MSHR hits (Count)
system.cpu.icache.ReadReq.mshrMisses::cpu.inst         2310                       # number of ReadReq MSHR misses (Count)
system.cpu.icache.ReadReq.mshrMisses::total         2310                       # number of ReadReq MSHR misses (Count)
system.cpu.icache.ReadReq.mshrMissLatency::cpu.inst    154575499                       # number of ReadReq MSHR miss ticks (Tick)
system.cpu.icache.ReadReq.mshrMissLatency::total    154575499                       # number of ReadReq MSHR miss ticks (Tick)
system.cpu.icache.ReadReq.mshrMissRate::cpu.inst     0.000548                       # mshr miss rate for ReadReq accesses (Ratio)
system.cpu.icache.ReadReq.mshrMissRate::total     0.000548                       # mshr miss rate for ReadReq accesses (Ratio)
system.cpu.icache.ReadReq.avgMshrMissLatency::cpu.inst 66915.800433                       # average ReadReq mshr miss latency ((Tick/Count))
system.cpu.icache.ReadReq.avgMshrMissLatency::total 66915.800433                       # average ReadReq mshr miss latency ((Tick/Count))
system.cpu.icache.power_state.pwrStateResidencyTicks::UNDEFINED  11018060000                       # Cumulative time (in ticks) in various power states (Tick)
system.cpu.icache.tags.tagsInUse           255.643573                       # Average ticks per tags in use ((Tick/Count))
system.cpu.icache.tags.totalRefs              4218149                       # Total number of references to valid blocks. (Count)
system.cpu.icache.tags.sampledRefs               2309                       # Sample count of references to valid blocks. (Count)
system.cpu.icache.tags.avgRefs            1826.829363                       # Average number of references to valid blocks. ((Count/Count))
system.cpu.icache.tags.warmupTick               87500                       # The tick when the warmup percentage was hit. (Tick)
system.cpu.icache.tags.occupancies::cpu.inst   255.643573                       # Average occupied blocks per tick, per requestor ((Count/Tick))
system.cpu.icache.tags.avgOccs::cpu.inst     0.998608                       # Average percentage of cache occupancy ((Ratio/Tick))
system.cpu.icache.tags.avgOccs::total        0.998608                       # Average percentage of cache occupancy ((Ratio/Tick))
system.cpu.icache.tags.occupanciesTaskId::1024          256                       # Occupied blocks per task id (Count)
system.cpu.icache.tags.ageTaskId_1024::0           82                       # Occupied blocks per task id, per block age (Count)
system.cpu.icache.tags.ageTaskId_1024::1          139                       # Occupied blocks per task id, per block age (Count)
system.cpu.icache.tags.ageTaskId_1024::4           35                       # Occupied blocks per task id, per block age (Count)
system.cpu.icache.tags.ratioOccsTaskId::1024            1                       # Ratio of occupied blocks and all blocks, per task id (Ratio)
system.cpu.icache.tags.tagAccesses           16877473                       # Number of tag accesses (Count)
system.cpu.icache.tags.dataAccesses          16877473                       # Number of data accesses (Count)
system.cpu.icache.tags.power_state.pwrStateResidencyTicks::UNDEFINED  11018060000                       # Cumulative time (in ticks) in various power states (Tick)
system.cpu.iew.idleCycles                           0                       # Number of cycles IEW is idle (Cycle)
system.cpu.iew.squashCycles                     19015                       # Number of cycles IEW is squashing (Cycle)
system.cpu.iew.blockCycles                    2529614                       # Number of cycles IEW is blocking (Cycle)
system.cpu.iew.unblockCycles                   628617                       # Number of cycles IEW is unblocking (Cycle)
system.cpu.iew.dispatchedInsts               19170928                       # Number of instructions dispatched to IQ (Count)
system.cpu.iew.dispSquashedInsts                 2577                       # Number of squashed instructions skipped by dispatch (Count)
system.cpu.iew.dispLoadInsts                   656832                       # Number of dispatched load instructions (Count)
system.cpu.iew.dispStoreInsts                  237528                       # Number of dispatched store instructions (Count)
system.cpu.iew.dispNonSpecInsts                   395                       # Number of dispatched non-speculative instructions (Count)
system.cpu.iew.iqFullEvents                    308514                       # Number of times the IQ has become full, causing a stall (Count)
system.cpu.iew.lsqFullEvents                    26724                       # Number of times the LSQ has become full, causing a stall (Count)
system.cpu.iew.memOrderViolationEvents             75                       # Number of memory order violations (Count)
system.cpu.iew.predictedTakenIncorrect          10986                       # Number of branches that were predicted taken incorrectly (Count)
system.cpu.iew.predictedNotTakenIncorrect        10074                       # Number of branches that were predicted not taken incorrectly (Count)
system.cpu.iew.branchMispredicts                21060                       # Number of branch mispredicts detected at execute (Count)
system.cpu.iew.instsToCommit                 18701166                       # Cumulative count of insts sent to commit (Count)
system.cpu.iew.writebackCount                18691221                       # Cumulative count of insts written-back (Count)
system.cpu.iew.producerInst                   8183161                       # Number of instructions producing a value (Count)
system.cpu.iew.consumerInst                  13798817                       # Number of instructions consuming a value (Count)
system.cpu.iew.wbRate                        0.848208                       # Insts written-back per cycle ((Count/Cycle))
system.cpu.iew.wbFanout                      0.593034                       # Average fanout of values written-back ((Count/Count))
system.cpu.lsq0.forwLoads                       24436                       # Number of loads that had data forwarded from stores (Count)
system.cpu.lsq0.squashedLoads                  113023                       # Number of loads squashed (Count)
system.cpu.lsq0.ignoredResponses                   43                       # Number of memory responses ignored because the instruction is squashed (Count)
system.cpu.lsq0.memOrderViolation                  75                       # Number of memory ordering violations (Count)
system.cpu.lsq0.squashedStores                  37740                       # Number of stores squashed (Count)
system.cpu.lsq0.rescheduledLoads                 9280                       # Number of loads that were rescheduled (Count)
system.cpu.lsq0.blockedByCache                   1982                       # Number of times an access to memory failed due to the cache being blocked (Count)
system.cpu.lsq0.loadToUse::samples             543809                       # Distribution of cycle latency between the first time a load is issued and its completion (Unspecified)
system.cpu.lsq0.loadToUse::mean             18.545300                       # Distribution of cycle latency between the first time a load is issued and its completion (Unspecified)
system.cpu.lsq0.loadToUse::stdev            54.092823                       # Distribution of cycle latency between the first time a load is issued and its completion (Unspecified)
system.cpu.lsq0.loadToUse::0-9                 466099     85.71%     85.71% # Distribution of cycle latency between the first time a load is issued and its completion (Unspecified)
system.cpu.lsq0.loadToUse::10-19                 2879      0.53%     86.24% # Distribution of cycle latency between the first time a load is issued and its completion (Unspecified)
system.cpu.lsq0.loadToUse::20-29                30153      5.54%     91.78% # Distribution of cycle latency between the first time a load is issued and its completion (Unspecified)
system.cpu.lsq0.loadToUse::30-39                 1157      0.21%     92.00% # Distribution of cycle latency between the first time a load is issued and its completion (Unspecified)
system.cpu.lsq0.loadToUse::40-49                  856      0.16%     92.15% # Distribution of cycle latency between the first time a load is issued and its completion (Unspecified)
[...]
system.mem_ctrls.dram.perBankWrBursts::10          100                       # Per bank write bursts (Count)
system.mem_ctrls.dram.perBankWrBursts::11           57                       # Per bank write bursts (Count)
system.mem_ctrls.dram.perBankWrBursts::12          108                       # Per bank write bursts (Count)
system.mem_ctrls.dram.perBankWrBursts::13           98                       # Per bank write bursts (Count)
system.mem_ctrls.dram.perBankWrBursts::14           64                       # Per bank write bursts (Count)
system.mem_ctrls.dram.perBankWrBursts::15          126                       # Per bank write bursts (Count)
system.mem_ctrls.dram.totQLat               183985500                       # Total ticks spent queuing (Tick)
system.mem_ctrls.dram.totBusLat              74835000                       # Total ticks spent in databus transfers (Tick)
system.mem_ctrls.dram.totMemAccLat          464616750                       # Total ticks spent from burst creation until serviced by the DRAM (Tick)
system.mem_ctrls.dram.avgQLat                12292.74                       # Average queueing delay per DRAM burst ((Tick/Count))
system.mem_ctrls.dram.avgBusLat               5000.00                       # Average bus latency per DRAM burst ((Tick/Count))
system.mem_ctrls.dram.avgMemAccLat           31042.74                       # Average memory access latency per DRAM burst ((Tick/Count))
system.mem_ctrls.dram.readRowHits               10595                       # Number of row buffer hits during reads (Count)
system.mem_ctrls.dram.writeRowHits               1170                       # Number of row buffer hits during writes (Count)
system.mem_ctrls.dram.readRowHitRate            70.79                       # Row buffer hit rate for reads (Ratio)
system.mem_ctrls.dram.writeRowHitRate           76.02                       # Row buffer hit rate for writes (Ratio)
system.mem_ctrls.dram.bytesPerActivate::samples         4739                       # Bytes accessed per row activation (Byte)
system.mem_ctrls.dram.bytesPerActivate::mean   222.858831                       # Bytes accessed per row activation (Byte)
system.mem_ctrls.dram.bytesPerActivate::gmean   138.623129                       # Bytes accessed per row activation (Byte)
system.mem_ctrls.dram.bytesPerActivate::stdev   266.796794                       # Bytes accessed per row activation (Byte)
system.mem_ctrls.dram.bytesPerActivate::0-127         2121     44.76%     44.76% # Bytes accessed per row activation (Byte)
system.mem_ctrls.dram.bytesPerActivate::128-255         1408     29.71%     74.47% # Bytes accessed per row activation (Byte)
system.mem_ctrls.dram.bytesPerActivate::256-383          421      8.88%     83.35% # Bytes accessed per row activation (Byte)
system.mem_ctrls.dram.bytesPerActivate::384-511          162      3.42%     86.77% # Bytes accessed per row activation (Byte)
system.mem_ctrls.dram.bytesPerActivate::512-639          128      2.70%     89.47% # Bytes accessed per row activation (Byte)
system.mem_ctrls.dram.bytesPerActivate::640-767           84      1.77%     91.24% # Bytes accessed per row activation (Byte)
system.mem_ctrls.dram.bytesPerActivate::768-895           76      1.60%     92.85% # Bytes accessed per row activation (Byte)
system.mem_ctrls.dram.bytesPerActivate::896-1023           33      0.70%     93.54% # Bytes accessed per row activation (Byte)
system.mem_ctrls.dram.bytesPerActivate::1024-1151          306      6.46%    100.00% # Bytes accessed per row activation (Byte)
system.mem_ctrls.dram.bytesPerActivate::total         4739                       # Bytes accessed per row activation (Byte)
system.mem_ctrls.dram.bytesRead                957888                       # Total bytes read (Byte)
system.mem_ctrls.dram.bytesWritten              98496                       # Total bytes written (Byte)
system.mem_ctrls.dram.avgRdBW               86.937991                       # Average DRAM read bandwidth in MiBytes/s ((Byte/Second))
system.mem_ctrls.dram.avgWrBW                8.939505                       # Average DRAM write bandwidth in MiBytes/s ((Byte/Second))
system.mem_ctrls.dram.peakBW                 12800.00                       # Theoretical peak bandwidth in MiByte/s ((Byte/Second))
system.mem_ctrls.dram.busUtil                    0.75                       # Data bus utilization in percentage (Ratio)
system.mem_ctrls.dram.busUtilRead                0.68                       # Data bus utilization in percentage for reads (Ratio)
system.mem_ctrls.dram.busUtilWrite               0.07                       # Data bus utilization in percentage for writes (Ratio)
system.mem_ctrls.dram.pageHitRate               71.28                       # Row buffer hit rate, read and write combined (Ratio)
system.mem_ctrls.dram.power_state.pwrStateResidencyTicks::UNDEFINED  11018060000                       # Cumulative time (in ticks) in various power states (Tick)
system.mem_ctrls.dram.rank0.actEnergy        17878560                       # Energy for activate commands per rank (pJ) (Joule)
system.mem_ctrls.dram.rank0.preEnergy         9495090                       # Energy for precharge commands per rank (pJ) (Joule)
system.mem_ctrls.dram.rank0.readEnergy       53799900                       # Energy for read commands per rank (pJ) (Joule)
system.mem_ctrls.dram.rank0.writeEnergy       4640580                       # Energy for write commands per rank (pJ) (Joule)
system.mem_ctrls.dram.rank0.refreshEnergy 869715600.000000                       # Energy for refresh commands per rank (pJ) (Joule)
system.mem_ctrls.dram.rank0.actBackEnergy    852615120                       # Energy for active background per rank (pJ) (Joule)
system.mem_ctrls.dram.rank0.preBackEnergy   3512943360                       # Energy for precharge background per rank (pJ) (Joule)
system.mem_ctrls.dram.rank0.actPowerDownEnergy            0                       # Energy for active power-down per rank (pJ) (Joule)
system.mem_ctrls.dram.rank0.prePowerDownEnergy            0                       # Energy for precharge power-down per rank (pJ) (Joule)
system.mem_ctrls.dram.rank0.selfRefreshEnergy            0                       # Energy for self refresh per rank (pJ) (Joule)
system.mem_ctrls.dram.rank0.totalEnergy    5321088210                       # Total energy per rank (pJ) (Joule)
system.mem_ctrls.dram.rank0.averagePower   482.942388                       # Core power per rank (mW) (Watt)
system.mem_ctrls.dram.rank0.totalIdleTime            0                       # Total Idle time Per DRAM Rank (Tick)
system.mem_ctrls.dram.rank0.pwrStateTime::IDLE   9124544500                       # Time in different power states (Tick)
system.mem_ctrls.dram.rank0.pwrStateTime::REF    367900000                       # Time in different power states (Tick)
system.mem_ctrls.dram.rank0.pwrStateTime::SREF            0                       # Time in different power states (Tick)
system.mem_ctrls.dram.rank0.pwrStateTime::PRE_PDN            0                       # Time in different power states (Tick)
system.mem_ctrls.dram.rank0.pwrStateTime::ACT   1525615500                       # Time in different power states (Tick)
system.mem_ctrls.dram.rank0.pwrStateTime::ACT_PDN            0                       # Time in different power states (Tick)
system.mem_ctrls.dram.rank1.actEnergy        15972180                       # Energy for activate commands per rank (pJ) (Joule)
system.mem_ctrls.dram.rank1.preEnergy         8489415                       # Energy for precharge commands per rank (pJ) (Joule)
system.mem_ctrls.dram.rank1.readEnergy       53064480                       # Energy for read commands per rank (pJ) (Joule)
system.mem_ctrls.dram.rank1.writeEnergy       3393000                       # Energy for write commands per rank (pJ) (Joule)
system.mem_ctrls.dram.rank1.refreshEnergy 869715600.000000                       # Energy for refresh commands per rank (pJ) (Joule)
system.mem_ctrls.dram.rank1.actBackEnergy    768029400                       # Energy for active background per rank (pJ) (Joule)
system.mem_ctrls.dram.rank1.preBackEnergy   3584173440                       # Energy for precharge background per rank (pJ) (Joule)
system.mem_ctrls.dram.rank1.actPowerDownEnergy            0                       # Energy for active power-down per rank (pJ) (Joule)
system.mem_ctrls.dram.rank1.prePowerDownEnergy            0                       # Energy for precharge power-down per rank (pJ) (Joule)
system.mem_ctrls.dram.rank1.selfRefreshEnergy            0                       # Energy for self refresh per rank (pJ) (Joule)
system.mem_ctrls.dram.rank1.totalEnergy    5302837515                       # Total energy per rank (pJ) (Joule)
system.mem_ctrls.dram.rank1.averagePower   481.285954                       # Core power per rank (mW) (Watt)
system.mem_ctrls.dram.rank1.totalIdleTime            0                       # Total Idle time Per DRAM Rank (Tick)
system.mem_ctrls.dram.rank1.pwrStateTime::IDLE   9310891000                       # Time in different power states (Tick)
system.mem_ctrls.dram.rank1.pwrStateTime::REF    367900000                       # Time in different power states (Tick)
system.mem_ctrls.dram.rank1.pwrStateTime::SREF            0                       # Time in different power states (Tick)
system.mem_ctrls.dram.rank1.pwrStateTime::PRE_PDN            0                       # Time in different power states (Tick)
system.mem_ctrls.dram.rank1.pwrStateTime::ACT   1339269000                       # Time in different power states (Tick)
system.mem_ctrls.dram.rank1.pwrStateTime::ACT_PDN            0                       # Time in different power states (Tick)
system.mem_ctrls.power_state.pwrStateResidencyTicks::UNDEFINED  11018060000                       # Cumulative time (in ticks) in various power states (Tick)
system.membus.transDist::ReadResp               13509                       # Transaction distribution (Count)
system.membus.transDist::WritebackDirty          1564                       # Transaction distribution (Count)
system.membus.transDist::CleanEvict              9441                       # Transaction distribution (Count)
system.membus.transDist::ReadExReq               1481                       # Transaction distribution (Count)
system.membus.transDist::ReadExResp              1481                       # Transaction distribution (Count)
system.membus.transDist::ReadSharedReq          13509                       # Transaction distribution (Count)
system.membus.transDist::InvalidateReq            144                       # Transaction distribution (Count)
system.membus.pktCount_system.l2.mem_side_port::system.mem_ctrls.port        41129                       # Packet count per connected requestor and responder (Count)
system.membus.pktCount::total                   41129                       # Packet count per connected requestor and responder (Count)
system.membus.pktSize_system.l2.mem_side_port::system.mem_ctrls.port      1059456                       # Cumulative packet size per connected requestor and responder (Byte)
system.membus.pktSize::total                  1059456                       # Cumulative packet size per connected requestor and responder (Byte)
system.membus.snoops                                0                       # Total snoops (Count)
system.membus.snoopTraffic                          0                       # Total snoop traffic (Byte)
system.membus.snoopFanout::samples              15134                       # Request fanout histogram (Count)
system.membus.snoopFanout::mean                     0                       # Request fanout histogram (Count)
system.membus.snoopFanout::stdev                    0                       # Request fanout histogram (Count)
system.membus.snoopFanout::underflows               0      0.00%      0.00% # Request fanout histogram (Count)
system.membus.snoopFanout::0                    15134    100.00%    100.00% # Request fanout histogram (Count)
system.membus.snoopFanout::1                        0      0.00%    100.00% # Request fanout histogram (Count)
system.membus.snoopFanout::overflows                0      0.00%    100.00% # Request fanout histogram (Count)
system.membus.snoopFanout::min_value                0                       # Request fanout histogram (Count)
system.membus.snoopFanout::max_value                0                       # Request fanout histogram (Count)
system.membus.snoopFanout::total                15134                       # Request fanout histogram (Count)
system.membus.power_state.pwrStateResidencyTicks::UNDEFINED  11018060000                       # Cumulative time (in ticks) in various power states (Tick)
system.membus.reqLayer0.occupancy            36152000                       # Layer occupancy (ticks) (Tick)
system.membus.reqLayer0.utilization               0.0                       # Layer utilization (Ratio)
system.membus.respLayer1.occupancy           79990750                       # Layer occupancy (ticks) (Tick)
system.membus.respLayer1.utilization              0.0                       # Layer utilization (Ratio)
system.membus.snoop_filter.totRequests          26139                       # Total number of requests made to the snoop filter. (Count)
system.membus.snoop_filter.hitSingleRequests        11005                       # Number of requests hitting in the snoop filter with a single holder of the requested data. (Count)
system.membus.snoop_filter.hitMultiRequests            0                       # Number of requests hitting in the snoop filter with multiple (>1) holders of the requested data. (Count)
system.membus.snoop_filter.totSnoops                0                       # Total number of snoops made to the snoop filter. (Count)
system.membus.snoop_filter.hitSingleSnoops            0                       # Number of snoops hitting in the snoop filter with a single holder of the requested data. (Count)
system.membus.snoop_filter.hitMultiSnoops            0                       # Number of snoops hitting in the snoop filter with multiple (>1) holders of the requested data. (Count)
system.tol2bus.transDist::ReadResp              41896                       # Transaction distribution (Count)
system.tol2bus.transDist::WritebackDirty         4985                       # Transaction distribution (Count)
system.tol2bus.transDist::WritebackClean         2053                       # Transaction distribution (Count)
system.tol2bus.transDist::CleanEvict            47338                       # Transaction distribution (Count)
system.tol2bus.transDist::ReadExReq              2151                       # Transaction distribution (Count)
system.tol2bus.transDist::ReadExResp             2151                       # Transaction distribution (Count)
system.tol2bus.transDist::ReadCleanReq           2310                       # Transaction distribution (Count)
system.tol2bus.transDist::ReadSharedReq         39587                       # Transaction distribution (Count)
system.tol2bus.transDist::InvalidateReq           145                       # Transaction distribution (Count)
system.tol2bus.transDist::InvalidateResp          145                       # Transaction distribution (Count)
system.tol2bus.pktCount_system.cpu.icache.mem_side_port::system.l2.cpu_side_port         6672                       # Packet count per connected requestor and responder (Count)
system.tol2bus.pktCount_system.cpu.dcache.mem_side_port::system.l2.cpu_side_port       124625                       # Packet count per connected requestor and responder (Count)
system.tol2bus.pktCount::total                 131297                       # Packet count per connected requestor and responder (Count)
system.tol2bus.pktSize_system.cpu.icache.mem_side_port::system.l2.cpu_side_port       279168                       # Cumulative packet size per connected requestor and responder (Byte)
system.tol2bus.pktSize_system.cpu.dcache.mem_side_port::system.l2.cpu_side_port      2890176                       # Cumulative packet size per connected requestor and responder (Byte)
system.tol2bus.pktSize::total                 3169344                       # Cumulative packet size per connected requestor and responder (Byte)
system.tol2bus.snoops                           11464                       # Total snoops (Count)
system.tol2bus.snoopTraffic                    100096                       # Total snoop traffic (Byte)
system.tol2bus.snoopFanout::samples             55657                       # Request fanout histogram (Count)
system.tol2bus.snoopFanout::mean             0.011283                       # Request fanout histogram (Count)
system.tol2bus.snoopFanout::stdev            0.105623                       # Request fanout histogram (Count)
system.tol2bus.snoopFanout::underflows              0      0.00%      0.00% # Request fanout histogram (Count)
system.tol2bus.snoopFanout::0                   55029     98.87%     98.87% # Request fanout histogram (Count)
system.tol2bus.snoopFanout::1                     628      1.13%    100.00% # Request fanout histogram (Count)
system.tol2bus.snoopFanout::2                       0      0.00%    100.00% # Request fanout histogram (Count)
system.tol2bus.snoopFanout::overflows               0      0.00%    100.00% # Request fanout histogram (Count)
system.tol2bus.snoopFanout::min_value               0                       # Request fanout histogram (Count)
system.tol2bus.snoopFanout::max_value               1                       # Request fanout histogram (Count)
system.tol2bus.snoopFanout::total               55657                       # Request fanout histogram (Count)
system.tol2bus.power_state.pwrStateResidencyTicks::UNDEFINED  11018060000                       # Cumulative time (in ticks) in various power states (Tick)
system.tol2bus.reqLayer0.occupancy           49026500                       # Layer occupancy (ticks) (Tick)
system.tol2bus.reqLayer0.utilization              0.0                       # Layer utilization (Ratio)
system.tol2bus.respLayer0.occupancy           3464498                       # Layer occupancy (ticks) (Tick)
system.tol2bus.respLayer0.utilization             0.0                       # Layer utilization (Ratio)
system.tol2bus.respLayer1.occupancy          62679500                       # Layer occupancy (ticks) (Tick)
system.tol2bus.respLayer1.utilization             0.0                       # Layer utilization (Ratio)
system.tol2bus.snoop_filter.totRequests         87105                       # Total number of requests made to the snoop filter. (Count)
system.tol2bus.snoop_filter.hitSingleRequests        42914                       # Number of requests hitting in the snoop filter with a single holder of the requested data. (Count)
system.tol2bus.snoop_filter.hitMultiRequests            3                       # Number of requests hitting in the snoop filter with multiple (>1) holders of the requested data. (Count)
system.tol2bus.snoop_filter.totSnoops             623                       # Total number of snoops made to the snoop filter. (Count)
system.tol2bus.snoop_filter.hitSingleSnoops          623                       # Number of snoops hitting in the snoop filter with a single holder of the requested data. (Count)
system.tol2bus.snoop_filter.hitMultiSnoops            0                       # Number of snoops hitting in the snoop filter with multiple (>1) holders of the requested data. (Count)
system.voltage_domain.voltage                       1                       # Voltage in Volts (Volt)
system.workload.inst.arm                            0                       # number of arm instructions executed (Count)
system.workload.inst.quiesce                        0                       # number of quiesce instructions executed (Count)

---------- End Simulation Statistics   ----------
