
---------- Begin Simulation Statistics ----------
simSeconds                                   0.004989                       # Number of seconds simulated (Second)
simTicks                                   4988979000                       # Number of ticks simulated (Tick)
finalTick                                  4988979000                       # Number of ticks from beginning of simulation (restored from checkpoints and never reset) (Tick)
simFreq                                  1000000000000                       # The number of ticks per simulated second ((Tick/Second))
hostSeconds                                     54.87                       # Real time elapsed on the host (Second)
hostTickRate                                 90917339                       # The number of ticks simulated per host second (ticks/s) ((Tick/Second))
hostMemory                                     681140                       # Number of bytes of host memory used (Byte)
simInsts                                     15663279                       # Number of instructions simulated (Count)
simOps                                       19806373                       # Number of ops (including micro ops) simulated (Count)
hostInstRate                                   285441                       # Simulator instruction rate (inst/s) ((Count/Second))
hostOpRate                                     360943                       # Simulator op (including micro ops) rate (op/s) ((Count/Second))
system.clk_domain.clock                          1000                       # Clock period in ticks (Tick)
system.cpu.numCycles                          9977959                       # Number of cpu cycles simulated (Cycle)
system.cpu.numWorkItemsStarted                      0                       # Number of work items this cpu started (Count)
system.cpu.numWorkItemsCompleted                    0                       # Number of work items this cpu completed (Count)
system.cpu.instsAdded                        20421544                       # Number of instructions added to the IQ (excludes non-spec) (Count)
system.cpu.nonSpecInstsAdded                      398                       # Number of non-speculative instructions added to the IQ (Count)
system.cpu.instsIssued                       20247627                       # Number of instructions issued (Count)
system.cpu.squashedInstsIssued                   2057                       # Number of squashed instructions issued (Count)
system.cpu.squashedInstsExamined               615568                       # Number of squashed instructions iterated over during squash; mainly for profiling (Count)
system.cpu.squashedOperandsExamined            513263                       # Number of squashed operands that are examined and possibly removed from graph (Count)
system.cpu.squashedNonSpecRemoved                 125                       # Number of squashed non-spec instructions that were removed (Count)
system.cpu.numIssuedDist::samples             9839331                       # Number of insts issued each cycle (Count)
system.cpu.numIssuedDist::mean               2.057826                       # Number of insts issued each cycle (Count)
system.cpu.numIssuedDist::stdev              2.706571                       # Number of insts issued each cycle (Count)
system.cpu.numIssuedDist::underflows                0      0.00%      0.00% # Number of insts issued each cycle (Count)
system.cpu.numIssuedDist::0                   5226161     53.12%     53.12% # Number of insts issued each cycle (Count)
system.cpu.numIssuedDist::1                    710723      7.22%     60.34% # Number of insts issued each cycle (Count)
system.cpu.numIssuedDist::2                    533760      5.42%     65.76% # Number of insts issued each cycle (Count)
system.cpu.numIssuedDist::3                    384847      3.91%     69.67% # Number of insts issued each cycle (Count)
system.cpu.numIssuedDist::4                    826487      8.40%     78.07% # Number of insts issued each cycle (Count)
system.cpu.numIssuedDist::5                    657483      6.68%     84.76% # Number of insts issued each cycle (Count)
system.cpu.numIssuedDist::6                    472323      4.80%     89.56% # Number of insts issued each cycle (Count)
system.cpu.numIssuedDist::7                    332834      3.38%     92.94% # Number of insts issued each cycle (Count)
system.cpu.numIssuedDist::8                    694713      7.06%    100.00% # Number of insts issued each cycle (Count)
system.cpu.numIssuedDist::overflows                 0      0.00%    100.00% # Number of insts issued each cycle (Count)
system.cpu.numIssuedDist::min_value                 0                       # Number of insts issued each cycle (Count)
system.cpu.numIssuedDist::max_value                 8                       # Number of insts issued each cycle (Count)
system.cpu.numIssuedDist::total               9839331                       # Number of insts issued each cycle (Count)
system.cpu.statFuBusy::No_OpClass                   0      0.00%      0.00% # attempts to use FU when none available (Count)
system.cpu.statFuBusy::IntAlu                   79505     36.09%     36.09% # attempts to use FU when none available (Count)
system.cpu.statFuBusy::IntMult                      0      0.00%     36.09% # attempts to use FU when none available (Count)
system.cpu.statFuBusy::IntDiv                    1224      0.56%     36.65% # attempts to use FU when none available (Count)
system.cpu.statFuBusy::FloatAdd                     0      0.00%     36.65% # attempts to use FU when none available (Count)
system.cpu.statFuBusy::FloatCmp                     0      0.00%     36.65% # attempts to use FU when none available (Count)
system.cpu.statFuBusy::FloatCvt                     0      0.00%     36.65% # attempts to use FU when none available (Count)
system.cpu.statFuBusy::FloatMult                    0      0.00%     36.65% # attempts to use FU when none available (Count)
system.cpu.statFuBusy::FloatMultAcc                 0      0.00%     36.65% # attempts to use FU when none available (Count)
system.cpu.statFuBusy::FloatDiv                     0      0.00%     36.65% # attempts to use FU when none available (Count)
system.cpu.statFuBusy::FloatMisc                    0      0.00%     36.65% # attempts to use FU when none available (Count)
system.cpu.statFuBusy::FloatSqrt                    0      0.00%     36.65% # attempts to use FU when none available (Count)
system.cpu.statFuBusy::SimdAdd                      0      0.00%     36.65% # attempts to use FU when none available (Count)
system.cpu.statFuBusy::SimdAddAcc                   0      0.00%     36.65% # attempts to use FU when none available (Count)
system.cpu.statFuBusy::SimdAlu                     17      0.01%     36.65% # attempts to use FU when none available (Count)
system.cpu.statFuBusy::SimdCmp                     15      0.01%     36.66% # attempts to use FU when none available (Count)
system.cpu.statFuBusy::SimdCvt                      0      0.00%     36.66% # attempts to use FU when none available (Count)
system.cpu.statFuBusy::SimdMisc                     0      0.00%     36.66% # attempts to use FU when none available (Count)
system.cpu.statFuBusy::SimdMult                  5960      2.71%     39.37% # attempts to use FU when none available (Count)
system.cpu.statFuBusy::SimdMultAcc                  0      0.00%     39.37% # attempts to use FU when none available (Count)
system.cpu.statFuBusy::SimdShift                    0      0.00%     39.37% # attempts to use FU when none available (Count)
system.cpu.statFuBusy::SimdShiftAcc                 0      0.00%     39.37% # attempts to use FU when none available (Count)
system.cpu.statFuBusy::SimdDiv                      0      0.00%     39.37% # attempts to use FU when none available (Count)
system.cpu.statFuBusy::SimdSqrt                     0      0.00%     39.37% # attempts to use FU when none available (Count)
system.cpu.statFuBusy::SimdFloatAdd                 0      0.00%     39.37% # attempts to use FU when none available (Count)
system.cpu.statFuBusy::SimdFloatAlu                 0      0.00%     39.37% # attempts to use FU when none available (Count)
system.cpu.statFuBusy::SimdFloatCmp                 0      0.00%     39.37% # attempts to use FU when none available (Count)
system.cpu.statFuBusy::SimdFloatCvt                 0      0.00%     39.37% # attempts to use FU when none available (Count)
system.cpu.statFuBusy::SimdFloatDiv                 0      0.00%     39.37% # attempts to use FU when none available (Count)
system.cpu.statFuBusy::SimdFloatMisc                0      0.00%     39.37% # attempts to use FU when none available (Count)
system.cpu.statFuBusy::SimdFloatMult                0      0.00%     39.37% # attempts to use FU when none available (Count)
system.cpu.statFuBusy::SimdFloatMultAcc             0      0.00%     39.37% # attempts to use FU when none available (Count)
system.cpu.statFuBusy::SimdFloatSqrt                0      0.00%     39.37% # attempts to use FU when none available (Count)
system.cpu.statFuBusy::SimdReduceAdd                0      0.00%     39.37% # attempts to use FU when none available (Count)
system.cpu.statFuBusy::SimdReduceAlu                0      0.00%     39.37% # attempts to use FU when none available (Count)
system.cpu.statFuBusy::SimdReduceCmp                0      0.00%     39.37% # attempts to use FU when none available (Count)
system.cpu.statFuBusy::SimdFloatReduceAdd            0      0.00%     39.37% # attempts to use FU when none available (Count)
system.cpu.statFuBusy::SimdFloatReduceCmp            0      0.00%     39.37% # attempts to use FU when none available (Count)
system.cpu.statFuBusy::SimdAes                      0      0.00%     39.37% # attempts to use FU when none available (Count)
system.cpu.statFuBusy::SimdAesMix                   0      0.00%     39.37% # attempts to use FU when none available (Count)
system.cpu.statFuBusy::SimdSha1Hash                 0      0.00%     39.37% # attempts to use FU when none available (Count)
system.cpu.statFuBusy::SimdSha1Hash2                0      0.00%     39.37% # attempts to use FU when none available (Count)
system.cpu.statFuBusy::SimdSha256Hash               0      0.00%     39.37% # attempts to use FU when none available (Count)
system.cpu.statFuBusy::SimdSha256Hash2              0      0.00%     39.37% # attempts to use FU when none available (Count)
system.cpu.statFuBusy::SimdShaSigma2                0      0.00%     39.37% # attempts to use FU when none available (Count)
system.cpu.statFuBusy::SimdShaSigma3                0      0.00%     39.37% # attempts to use FU when none available (Count)
system.cpu.statFuBusy::SimdPredAlu                  0      0.00%     39.37% # attempts to use FU when none available (Count)
system.cpu.statFuBusy::MemRead                 118640     53.86%     93.22% # attempts to use FU when none available (Count)
system.cpu.statFuBusy::MemWrite                 14929      6.78%    100.00% # attempts to use FU when none available (Count)
system.cpu.statFuBusy::FloatMemRead                 0      0.00%    100.00% # attempts to use FU when none available (Count)
system.cpu.statFuBusy::FloatMemWrite                0      0.00%    100.00% # attempts to use FU when none available (Count)
system.cpu.statFuBusy::IprAccess                    0      0.00%    100.00% # attempts to use FU when none available (Count)
system.cpu.statFuBusy::InstPrefetch                 0      0.00%    100.00% # attempts to use FU when none available (Count)
system.cpu.statIssuedInstType_0::No_OpClass      1550444      7.66%      7.66% # Number of instructions issued per FU type, per thread (Count)
system.cpu.statIssuedInstType_0::IntAlu      10109074     49.93%     57.58% # Number of instructions issued per FU type, per thread (Count)
system.cpu.statIssuedInstType_0::IntMult         7636      0.04%     57.62% # Number of instructions issued per FU type, per thread (Count)
system.cpu.statIssuedInstType_0::IntDiv          2705      0.01%     57.64% # Number of instructions issued per FU type, per thread (Count)
system.cpu.statIssuedInstType_0::FloatAdd            0      0.00%     57.64% # Number of instructions issued per FU type, per thread (Count)
system.cpu.statIssuedInstType_0::FloatCmp            0      0.00%     57.64% # Number of instructions issued per FU type, per thread (Count)
system.cpu.statIssuedInstType_0::FloatCvt            0      0.00%     57.64% # Number of instructions issued per FU type, per thread (Count)
system.cpu.statIssuedInstType_0::FloatMult            0      0.00%     57.64% # Number of instructions issued per FU type, per thread (Count)
system.cpu.statIssuedInstType_0::FloatMultAcc            0      0.00%     57.64% # Number of instructions issued per FU type, per thread (Count)
system.cpu.statIssuedInstType_0::FloatDiv            0      0.00%     57.64% # Number of instructions issued per FU type, per thread (Count)
system.cpu.statIssuedInstType_0::FloatMisc            2      0.00%     57.64% # Number of instructions issued per FU type, per thread (Count)
system.cpu.statIssuedInstType_0::FloatSqrt            0      0.00%     57.64% # Number of instructions issued per FU type, per thread (Count)
system.cpu.statIssuedInstType_0::SimdAdd      1549655      7.65%     65.29% # Number of instructions issued per FU type, per thread (Count)
system.cpu.statIssuedInstType_0::SimdAddAcc            0      0.00%     65.29% # Number of instructions issued per FU type, per thread (Count)
system.cpu.statIssuedInstType_0::SimdAlu          204      0.00%     65.29% # Number of instructions issued per FU type, per thread (Count)
system.cpu.statIssuedInstType_0::SimdCmp          117      0.00%     65.29% # Number of instructions issued per FU type, per thread (Count)
system.cpu.statIssuedInstType_0::SimdCvt            0      0.00%     65.29% # Number of instructions issued per FU type, per thread (Count)
system.cpu.statIssuedInstType_0::SimdMisc      1549683      7.65%     72.94% # Number of instructions issued per FU type, per thread (Count)
system.cpu.statIssuedInstType_0::SimdMult      1549560      7.65%     80.60% # Number of instructions issued per FU type, per thread (Count)
system.cpu.statIssuedInstType_0::SimdMultAcc            0      0.00%     80.60% # Number of instructions issued per FU type, per thread (Count)
system.cpu.statIssuedInstType_0::SimdShift            0      0.00%     80.60% # Number of instructions issued per FU type, per thread (Count)
system.cpu.statIssuedInstType_0::SimdShiftAcc            0      0.00%     80.60% # Number of instructions issued per FU type, per thread (Count)
system.cpu.statIssuedInstType_0::SimdDiv            0      0.00%     80.60% # Number of instructions issued per FU type, per thread (Count)
system.cpu.statIssuedInstType_0::SimdSqrt            0      0.00%     80.60% # Number of instructions issued per FU type, per thread (Count)
system.cpu.statIssuedInstType_0::SimdFloatAdd            0      0.00%     80.60% # Number of instructions issued per FU type, per thread (Count)
system.cpu.statIssuedInstType_0::SimdFloatAlu            0      0.00%     80.60% # Number of instructions issued per FU type, per thread (Count)
system.cpu.statIssuedInstType_0::SimdFloatCmp            0      0.00%     80.60% # Number of instructions issued per FU type, per thread (Count)
system.cpu.statIssuedInstType_0::SimdFloatCvt            0      0.00%     80.60% # Number of instructions issued per FU type, per thread (Count)
system.cpu.statIssuedInstType_0::SimdFloatDiv            0      0.00%     80.60% # Number of instructions issued per FU type, per thread (Count)
system.cpu.statIssuedInstType_0::SimdFloatMisc            0      0.00%     80.60% # Number of instructions issued per FU type, per thread (Count)
system.cpu.statIssuedInstType_0::SimdFloatMult            0      0.00%     80.60% # Number of instructions issued per FU type, per thread (Count)
system.cpu.statIssuedInstType_0::SimdFloatMultAcc            0      0.00%     80.60% # Number of instructions issued per FU type, per thread (Count)
system.cpu.statIssuedInstType_0::SimdFloatSqrt            0      0.00%     80.60% # Number of instructions issued per FU type, per thread (Count)
system.cpu.statIssuedInstType_0::SimdReduceAdd            0      0.00%     80.60% # Number of instructions issued per FU type, per thread (Count)
system.cpu.statIssuedInstType_0::SimdReduceAlu            0      0.00%     80.60% # Number of instructions issued per FU type, per thread (Count)
system.cpu.statIssuedInstType_0::SimdReduceCmp            0      0.00%     80.60% # Number of instructions issued per FU type, per thread (Count)
system.cpu.statIssuedInstType_0::SimdFloatReduceAdd            0      0.00%     80.60% # Number of instructions issued per FU type, per thread (Count)
system.cpu.statIssuedInstType_0::SimdFloatReduceCmp            0      0.00%     80.60% # Number of instructions issued per FU type, per thread (Count)
system.cpu.statIssuedInstType_0::SimdAes            0      0.00%     80.60% # Number of instructions issued per FU type, per thread (Count)
system.cpu.statIssuedInstType_0::SimdAesMix            0      0.00%     80.60% # Number of instructions issued per FU type, per thread (Count)
system.cpu.statIssuedInstType_0::SimdSha1Hash            0      0.00%     80.60% # Number of instructions issued per FU type, per thread (Count)
system.cpu.statIssuedInstType_0::SimdSha1Hash2            0      0.00%     80.60% # Number of instructions issued per FU type, per thread (Count)
system.cpu.statIssuedInstType_0::SimdSha256Hash            0      0.00%     80.60% # Number of instructions issued per FU type, per thread (Count)
system.cpu.statIssuedInstType_0::SimdSha256Hash2            0      0.00%     80.60% # Number of instructions issued per FU type, per thread (Count)
system.cpu.statIssuedInstType_0::SimdShaSigma2            0      0.00%     80.60% # Number of instructions issued per FU type, per thread (Count)
system.cpu.statIssuedInstType_0::SimdShaSigma3            0      0.00%     80.60% # Number of instructions issued per FU type, per thread (Count)
system.cpu.statIssuedInstType_0::SimdPredAlu            0      0.00%     80.60% # Number of instructions issued per FU type, per thread (Count)
system.cpu.statIssuedInstType_0::MemRead      3677091     18.16%     98.76% # Number of instructions issued per FU type, per thread (Count)
system.cpu.statIssuedInstType_0::MemWrite       251456      1.24%    100.00% # Number of instructions issued per FU type, per thread (Count)
system.cpu.statIssuedInstType_0::FloatMemRead            0      0.00%    100.00% # Number of instructions issued per FU type, per thread (Count)
system.cpu.statIssuedInstType_0::FloatMemWrite            0      0.00%    100.00% # Number of instructions issued per FU type, per thread (Count)
system.cpu.statIssuedInstType_0::IprAccess            0      0.00%    100.00% # Number of instructions issued per FU type, per thread (Count)
system.cpu.statIssuedInstType_0::InstPrefetch            0      0.00%    100.00% # Number of instructions issued per FU type, per thread (Count)
system.cpu.statIssuedInstType_0::total       20247627                       # Number of instructions issued per FU type, per thread (Count)
system.cpu.issueRate                         2.029235                       # Inst issue rate ((Count/Cycle))
system.cpu.fuBusy                              220290                       # FU busy when requested (Count)
system.cpu.fuBusyRate                        0.010880                       # FU busy rate (busy events/executed inst) ((Count/Count))
system.cpu.intInstQueueReads                 31807689                       # Number of integer instruction queue reads (Count)
system.cpu.intInstQueueWrites                11689040                       # Number of integer instruction queue writes (Count)
system.cpu.intInstQueueWakeupAccesses        10819054                       # Number of integer instruction queue wakeup accesses (Count)
system.cpu.fpInstQueueReads                         0                       # Number of floating instruction queue reads (Count)
system.cpu.fpInstQueueWrites                        0                       # Number of floating instruction queue writes (Count)
system.cpu.fpInstQueueWakeupAccesses                0                       # Number of floating instruction queue wakeup accesses (Count)
system.cpu.vecInstQueueReads                 18749243                       # Number of vector instruction queue reads (Count)
system.cpu.vecInstQueueWrites                 9348557                       # Number of vector instruction queue writes (Count)
system.cpu.vecInstQueueWakeupAccesses         9301418                       # Number of vector instruction queue wakeup accesses (Count)
system.cpu.intAluAccesses                    11042342                       # Number of integer alu accesses (Count)
system.cpu.fpAluAccesses                            0                       # Number of floating point alu accesses (Count)
system.cpu.vecAluAccesses                     7875131                       # Number of vector alu accesses (Count)
system.cpu.numInsts                          20221143                       # Number of executed instructions (Count)
system.cpu.numLoadInsts                       3665195                       # Number of load instructions executed (Count)
system.cpu.numSquashedInsts                     26484                       # Number of squashed instructions skipped in execute (Count)
system.cpu.numSwp                                   0                       # Number of swp insts executed (Count)
system.cpu.numNop                                1430                       # Number of nop insts executed (Count)
system.cpu.numRefs                            3915093                       # Number of memory reference insts executed (Count)
system.cpu.numBranches                        1645454                       # Number of branches executed (Count)
system.cpu.numStoreInsts                       249898                       # Number of stores executed (Count)
system.cpu.numRate                           2.026581                       # Inst execution rate ((Count/Cycle))
system.cpu.timesIdled                            1455                       # Number of times that the entire CPU went into an idle state and unscheduled itself (Count)
system.cpu.idleCycles                          138628                       # Total number of cycles that the CPU has spent unscheduled due to idling (Cycle)
system.cpu.committedInsts                    15663279                       # Number of Instructions Simulated (Count)
system.cpu.committedOps                      19806373                       # Number of Ops (including micro ops) Simulated (Count)
system.cpu.cpi                               0.637029                       # CPI: Cycles Per Instruction ((Cycle/Count))
system.cpu.totalCpi                          0.637029                       # CPI: Total CPI of All Threads ((Cycle/Count))
system.cpu.ipc                               1.569788                       # IPC: Instructions Per Cycle ((Count/Cycle))
system.cpu.totalIpc                          1.569788                       # IPC: Total IPC of All Threads ((Count/Cycle))
system.cpu.intRegfileReads                   17546513                       # Number of integer regfile reads (Count)
system.cpu.intRegfileWrites                   8634137                       # Number of integer regfile writes (Count)
system.cpu.vecRegfileReads                   23249195                       # number of vector regfile reads (Count)
system.cpu.ccRegfileReads                     5788128                       # number of cc regfile reads (Count)
system.cpu.ccRegfileWrites                    5786847                       # number of cc regfile writes (Count)
system.cpu.miscRegfileReads                  16252096                       # number of misc regfile reads (Count)
system.cpu.miscRegfileWrites                      213                       # number of misc regfile writes (Count)
system.cpu.MemDepUnit__0.insertedLoads        3633974                       # Number of loads inserted to the mem dependence unit. (Count)
system.cpu.MemDepUnit__0.insertedStores        257158                       # Number of stores inserted to the mem dependence unit. (Count)
system.cpu.MemDepUnit__0.conflictingLoads        13068                       # Number of conflicting loads. (Count)
system.cpu.MemDepUnit__0.conflictingStores        13407                       # Number of conflicting stores. (Count)
system.cpu.MemDepUnit__1.insertedLoads              0                       # Number of loads inserted to the mem dependence unit. (Count)
system.cpu.MemDepUnit__1.insertedStores             0                       # Number of stores inserted to the mem dependence unit. (Count)
system.cpu.MemDepUnit__1.conflictingLoads            0                       # Number of conflicting loads. (Count)
system.cpu.MemDepUnit__1.conflictingStores            0                       # Number of conflicting stores. (Count)
system.cpu.MemDepUnit__2.insertedLoads              0                       # Number of loads inserted to the mem dependence unit. (Count)
system.cpu.MemDepUnit__2.insertedStores             0                       # Number of stores inserted to the mem dependence unit. (Count)
system.cpu.MemDepUnit__2.conflictingLoads            0                       # Number of conflicting loads. (Count)
system.cpu.MemDepUnit__2.conflictingStores            0                       # Number of conflicting stores. (Count)
system.cpu.MemDepUnit__3.insertedLoads              0                       # Number of loads inserted to the mem dependence unit. (Count)
system.cpu.MemDepUnit__3.insertedStores             0                       # Number of stores inserted to the mem dependence unit. (Count)
system.cpu.MemDepUnit__3.conflictingLoads            0                       # Number of conflicting loads. (Count)
system.cpu.MemDepUnit__3.conflictingStores            0                       # Number of conflicting stores. (Count)
system.cpu.branchPred.lookups                 1772935                       # Number of BP lookups (Count)
system.cpu.branchPred.condPredicted           1697531                       # Number of conditional branches predicted (Count)
system.cpu.branchPred.condIncorrect             17186                       # Number of conditional branches incorrect (Count)
system.cpu.branchPred.BTBLookups               749967                       # Number of BTB lookups (Count)
system.cpu.branchPred.BTBUpdates                 9641                       # Number of BTB updates (Count)
system.cpu.branchPred.BTBHits                  747109                       # Number of BTB hits (Count)
system.cpu.branchPred.BTBHitRatio            0.996189                       # BTB Hit Ratio (Ratio)
system.cpu.branchPred.RASUsed                   17513                       # Number of times the RAS was used to get a target. (Count)
system.cpu.branchPred.RASIncorrect                 40                       # Number of incorrect RAS predictions. (Count)
system.cpu.branchPred.indirectLookups            6706                       # Number of indirect predictor lookups. (Count)
system.cpu.branchPred.indirectHits               1336                       # Number of indirect target hits. (Count)
system.cpu.branchPred.indirectMisses             5370                       # Number of indirect misses. (Count)
system.cpu.branchPred.indirectMispredicted          666                       # Number of mispredicted indirect branches. (Count)
system.cpu.commit.commitSquashedInsts          611201                       # The number of squashed insts skipped by commit (Count)
system.cpu.commit.commitNonSpecStalls             273                       # The number of times commit has been forced to stall to communicate backwards (Count)
system.cpu.commit.branchMispredicts             17066                       # The number of times a branch was mispredicted (Count)
system.cpu.commit.numCommittedDist::samples      9744727                       # Number of insts commited each cycle (Count)
system.cpu.commit.numCommittedDist::mean     2.032633                       # Number of insts commited each cycle (Count)
system.cpu.commit.numCommittedDist::stdev     3.087810                       # Number of insts commited each cycle (Count)
system.cpu.commit.numCommittedDist::underflows            0      0.00%      0.00% # Number of insts commited each cycle (Count)
system.cpu.commit.numCommittedDist::0         5816062     59.68%     59.68% # Number of insts commited each cycle (Count)
system.cpu.commit.numCommittedDist::1          910495      9.34%     69.03% # Number of insts commited each cycle (Count)
system.cpu.commit.numCommittedDist::2          175622      1.80%     70.83% # Number of insts commited each cycle (Count)
system.cpu.commit.numCommittedDist::3          173233      1.78%     72.61% # Number of insts commited each cycle (Count)
system.cpu.commit.numCommittedDist::4          698718      7.17%     79.78% # Number of insts commited each cycle (Count)
system.cpu.commit.numCommittedDist::5           67846      0.70%     80.47% # Number of insts commited each cycle (Count)
system.cpu.commit.numCommittedDist::6          150355      1.54%     82.02% # Number of insts commited each cycle (Count)
system.cpu.commit.numCommittedDist::7           29387      0.30%     82.32% # Number of insts commited each cycle (Count)
system.cpu.commit.numCommittedDist::8         1723009     17.68%    100.00% # Number of insts commited each cycle (Count)
system.cpu.commit.numCommittedDist::overflows            0      0.00%    100.00% # Number of insts commited each cycle (Count)
system.cpu.commit.numCommittedDist::min_value            0                       # Number of insts commited each cycle (Count)
system.cpu.commit.numCommittedDist::max_value            8                       # Number of insts commited each cycle (Count)
system.cpu.commit.numCommittedDist::total      9744727                       # Number of insts commited each cycle (Count)
system.cpu.commit.instsCommitted             15664357                       # Number of instructions committed (Count)
system.cpu.commit.opsCommitted               19807451                       # Number of ops (including micro ops) committed (Count)
system.cpu.commit.memRefs                     3738175                       # Number of memory references committed (Count)
system.cpu.commit.loads                       3518200                       # Number of loads committed (Count)
system.cpu.commit.amos                            106                       # Number of atomic instructions committed (Count)
system.cpu.commit.membars                         114                       # Number of memory barriers committed (Count)
system.cpu.commit.branches                    1592334                       # Number of branches committed (Count)
system.cpu.commit.vectorInstructions          9295807                       # Number of committed Vector instructions. (Count)
system.cpu.commit.floating                          0                       # Number of committed floating point instructions. (Count)
system.cpu.commit.integer                    13783403                       # Number of committed integer instructions. (Count)
system.cpu.commit.functionCalls                 11005                       # Number of function calls committed. (Count)
system.cpu.commit.committedInstType_0::No_OpClass      1548929      7.82%      7.82% # Class of committed instruction (Count)
system.cpu.commit.committedInstType_0::IntAlu      9863892     49.80%     57.62% # Class of committed instruction (Count)
system.cpu.commit.committedInstType_0::IntMult         7068      0.04%     57.65% # Class of committed instruction (Count)
system.cpu.commit.committedInstType_0::IntDiv         2567      0.01%     57.67% # Class of committed instruction (Count)
system.cpu.commit.committedInstType_0::FloatAdd            0      0.00%     57.67% # Class of committed instruction (Count)
system.cpu.commit.committedInstType_0::FloatCmp            0      0.00%     57.67% # Class of committed instruction (Count)
system.cpu.commit.committedInstType_0::FloatCvt            0      0.00%     57.67% # Class of committed instruction (Count)
system.cpu.commit.committedInstType_0::FloatMult            0      0.00%     57.67% # Class of committed instruction (Count)
system.cpu.commit.committedInstType_0::FloatMultAcc            0      0.00%     57.67% # Class of committed instruction (Count)
system.cpu.commit.committedInstType_0::FloatDiv            0      0.00%     57.67% # Class of committed instruction (Count)
system.cpu.commit.committedInstType_0::FloatMisc            2      0.00%     57.67% # Class of committed instruction (Count)
system.cpu.commit.committedInstType_0::FloatSqrt            0      0.00%     57.67% # Class of committed instruction (Count)
system.cpu.commit.committedInstType_0::SimdAdd      1548875      7.82%     65.49% # Class of committed instruction (Count)
system.cpu.commit.committedInstType_0::SimdAddAcc            0      0.00%     65.49% # Class of committed instruction (Count)
system.cpu.commit.committedInstType_0::SimdAlu          151      0.00%     65.49% # Class of committed instruction (Count)
system.cpu.commit.committedInstType_0::SimdCmp           93      0.00%     65.49% # Class of committed instruction (Count)
system.cpu.commit.committedInstType_0::SimdCvt            0      0.00%     65.49% # Class of committed instruction (Count)
system.cpu.commit.committedInstType_0::SimdMisc      1548899      7.82%     73.31% # Class of committed instruction (Count)
system.cpu.commit.committedInstType_0::SimdMult      1548800      7.82%     81.13% # Class of committed instruction (Count)
system.cpu.commit.committedInstType_0::SimdMultAcc            0      0.00%     81.13% # Class of committed instruction (Count)
system.cpu.commit.committedInstType_0::SimdShift            0      0.00%     81.13% # Class of committed instruction (Count)
system.cpu.commit.committedInstType_0::SimdShiftAcc            0      0.00%     81.13% # Class of committed instruction (Count)
system.cpu.commit.committedInstType_0::SimdDiv            0      0.00%     81.13% # Class of committed instruction (Count)
system.cpu.commit.committedInstType_0::SimdSqrt            0      0.00%     81.13% # Class of committed instruction (Count)
system.cpu.commit.committedInstType_0::SimdFloatAdd            0      0.00%     81.13% # Class of committed instruction (Count)
system.cpu.commit.committedInstType_0::SimdFloatAlu            0      0.00%     81.13% # Class of committed instruction (Count)
system.cpu.commit.committedInstType_0::SimdFloatCmp            0      0.00%     81.13% # Class of committed instruction (Count)
system.cpu.commit.committedInstType_0::SimdFloatCvt            0      0.00%     81.13% # Class of committed instruction (Count)
system.cpu.commit.committedInstType_0::SimdFloatDiv            0      0.00%     81.13% # Class of committed instruction (Count)
system.cpu.commit.committedInstType_0::SimdFloatMisc            0      0.00%     81.13% # Class of committed instruction (Count)
system.cpu.commit.committedInstType_0::SimdFloatMult            0      0.00%     81.13% # Class of committed instruction (Count)
system.cpu.commit.committedInstType_0::SimdFloatMultAcc            0      0.00%     81.13% # Class of committed instruction (Count)
system.cpu.commit.committedInstType_0::SimdFloatSqrt            0      0.00%     81.13% # Class of committed instruction (Count)
system.cpu.commit.committedInstType_0::SimdReduceAdd            0      0.00%     81.13% # Class of committed instruction (Count)
system.cpu.commit.committedInstType_0::SimdReduceAlu            0      0.00%     81.13% # Class of committed instruction (Count)
system.cpu.commit.committedInstType_0::SimdReduceCmp            0      0.00%     81.13% # Class of committed instruction (Count)
system.cpu.commit.committedInstType_0::SimdFloatReduceAdd            0      0.00%     81.13% # Class of committed instruction (Count)
system.cpu.commit.committedInstType_0::SimdFloatReduceCmp            0      0.00%     81.13% # Class of committed instruction (Count)
system.cpu.commit.committedInstType_0::SimdAes            0      0.00%     81.13% # Class of committed instruction (Count)
system.cpu.commit.committedInstType_0::SimdAesMix            0      0.00%     81.13% # Class of committed instruction (Count)
system.cpu.commit.committedInstType_0::SimdSha1Hash            0      0.00%     81.13% # Class of committed instruction (Count)
system.cpu.commit.committedInstType_0::SimdSha1Hash2            0      0.00%     81.13% # Class of committed instruction (Count)
system.cpu.commit.committedInstType_0::SimdSha256Hash            0      0.00%     81.13% # Class of committed instruction (Count)
system.cpu.commit.committedInstType_0::SimdSha256Hash2            0      0.00%     81.13% # Class of committed instruction (Count)
system.cpu.commit.committedInstType_0::SimdShaSigma2            0      0.00%     81.13% # Class of committed instruction (Count)
system.cpu.commit.committedInstType_0::SimdShaSigma3            0      0.00%     81.13% # Class of committed instruction (Count)
system.cpu.commit.committedInstType_0::SimdPredAlu            0      0.00%     81.13% # Class of committed instruction (Count)
system.cpu.commit.committedInstType_0::MemRead      3518200     17.76%     98.89% # Class of committed instruction (Count)
system.cpu.commit.committedInstType_0::MemWrite       219975      1.11%    100.00% # Class of committed instruction (Count)
system.cpu.commit.committedInstType_0::FloatMemRead            0      0.00%    100.00% # Class of committed instruction (Count)
system.cpu.commit.committedInstType_0::FloatMemWrite            0      0.00%    100.00% # Class of committed instruction (Count)
system.cpu.commit.committedInstType_0::IprAccess            0      0.00%    100.00% # Class of committed instruction (Count)
system.cpu.commit.committedInstType_0::InstPrefetch            0      0.00%    100.00% # Class of committed instruction (Count)
system.cpu.commit.committedInstType_0::total     19807451                       # Class of committed instruction (Count)
system.cpu.commit.commitEligibleSamples       1723009                       # number cycles where commit BW limit reached (Cycle)
system.cpu.dcache.demandHits::cpu.data        3456793                       # number of demand (read+write) hits (Count)
system.cpu.dcache.demandHits::total           3456793                       # number of demand (read+write) hits (Count)
system.cpu.dcache.overallHits::cpu.data       3456793                       # number of overall hits (Count)
system.cpu.dcache.overallHits::total          3456793                       # number of overall hits (Count)
system.cpu.dcache.demandMisses::cpu.data       335541                       # number of demand (read+write) misses (Count)
system.cpu.dcache.demandMisses::total          335541                       # number of demand (read+write) misses (Count)
system.cpu.dcache.overallMisses::cpu.data       335541                       # number of overall misses (Count)
system.cpu.dcache.overallMisses::total         335541                       # number of overall misses (Count)
system.cpu.dcache.demandMissLatency::cpu.data  14728016195                       # number of demand (read+write) miss ticks (Tick)
system.cpu.dcache.demandMissLatency::total  14728016195                       # number of demand (read+write) miss ticks (Tick)
system.cpu.dcache.overallMissLatency::cpu.data  14728016195                       # number of overall miss ticks (Tick)
system.cpu.dcache.overallMissLatency::total  14728016195                       # number of overall miss ticks (Tick)
system.cpu.dcache.demandAccesses::cpu.data      3792334                       # number of demand (read+write) accesses (Count)
system.cpu.dcache.demandAccesses::total       3792334                       # number of demand (read+write) accesses (Count)
system.cpu.dcache.overallAccesses::cpu.data      3792334                       # number of overall (read+write) accesses (Count)
system.cpu.dcache.overallAccesses::total      3792334                       # number of overall (read+write) accesses (Count)
system.cpu.dcache.demandMissRate::cpu.data     0.088479                       # miss rate for demand accesses (Ratio)
system.cpu.dcache.demandMissRate::total      0.088479                       # miss rate for demand accesses (Ratio)
system.cpu.dcache.overallMissRate::cpu.data     0.088479                       # miss rate for overall accesses (Ratio)
system.cpu.dcache.overallMissRate::total     0.088479                       # miss rate for overall accesses (Ratio)
system.cpu.dcache.demandAvgMissLatency::cpu.data 43893.342974                       # average overall miss latency in ticks ((Tick/Count))
system.cpu.dcache.demandAvgMissLatency::total 43893.342974                       # average overall miss latency in ticks ((Tick/Count))
system.cpu.dcache.overallAvgMissLatency::cpu.data 43893.342974                       # average overall miss latency ((Tick/Count))
system.cpu.dcache.overallAvgMissLatency::total 43893.342974                       # average overall miss latency ((Tick/Count))
system.cpu.dcache.blockedCycles::no_mshrs       253813                       # number of cycles access was blocked (Cycle)
system.cpu.dcache.blockedCycles::no_targets          439                       # number of cycles access was blocked (Cycle)
system.cpu.dcache.blockedCauses::no_mshrs         7237                       # number of times access was blocked (Count)
system.cpu.dcache.blockedCauses::no_targets            9                       # number of times access was blocked (Count)
system.cpu.dcache.avgBlocked::no_mshrs      35.071577                       # average number of cycles each access was blocked ((Cycle/Count))
system.cpu.dcache.avgBlocked::no_targets    48.777778                       # average number of cycles each access was blocked ((Cycle/Count))
system.cpu.dcache.writebacks::writebacks        31618                       # number of writebacks (Count)
system.cpu.dcache.writebacks::total             31618                       # number of writebacks (Count)
system.cpu.dcache.demandMshrHits::cpu.data       189835                       # number of demand (read+write) MSHR hits (Count)
system.cpu.dcache.demandMshrHits::total        189835                       # number of demand (read+write) MSHR hits (Count)
system.cpu.dcache.overallMshrHits::cpu.data       189835                       # number of overall MSHR hits (Count)
system.cpu.dcache.overallMshrHits::total       189835                       # number of overall MSHR hits (Count)
system.cpu.dcache.demandMshrMisses::cpu.data       145706                       # number of demand (read+write) MSHR misses (Count)
system.cpu.dcache.demandMshrMisses::total       145706                       # number of demand (read+write) MSHR misses (Count)
system.cpu.dcache.overallMshrMisses::cpu.data       145706                       # number of overall MSHR misses (Count)
system.cpu.dcache.overallMshrMisses::total       145706                       # number of overall MSHR misses (Count)
system.cpu.dcache.demandMshrMissLatency::cpu.data   6570406411                       # number of demand (read+write) MSHR miss ticks (Tick)
system.cpu.dcache.demandMshrMissLatency::total   6570406411                       # number of demand (read+write) MSHR miss ticks (Tick)
system.cpu.dcache.overallMshrMissLatency::cpu.data   6570406411                       # number of overall MSHR miss ticks (Tick)
system.cpu.dcache.overallMshrMissLatency::total   6570406411                       # number of overall MSHR miss ticks (Tick)
system.cpu.dcache.demandMshrMissRate::cpu.data     0.038421                       # mshr miss ratio for demand accesses (Ratio)
system.cpu.dcache.demandMshrMissRate::total     0.038421                       # mshr miss ratio for demand accesses (Ratio)
system.cpu.dcache.overallMshrMissRate::cpu.data     0.038421                       # mshr miss ratio for overall accesses (Ratio)
system.cpu.dcache.overallMshrMissRate::total     0.038421                       # mshr miss ratio for overall accesses (Ratio)
system.cpu.dcache.demandAvgMshrMissLatency::cpu.data 45093.588534                       # average overall mshr miss latency ((Tick/Count))
system.cpu.dcache.demandAvgMshrMissLatency::total 45093.588534                       # average overall mshr miss latency ((Tick/Count))
system.cpu.dcache.overallAvgMshrMissLatency::cpu.data 45093.588534                       # average overall mshr miss latency ((Tick/Count))
system.cpu.dcache.overallAvgMshrMissLatency::total 45093.588534                       # average overall mshr miss latency ((Tick/Count))
system.cpu.dcache.replacements                 144688                       # number of replacements (Count)
system.cpu.dcache.ReadReq.hits::cpu.data      3271416                       # number of ReadReq hits (Count)
system.cpu.dcache.ReadReq.hits::total         3271416                       # number of ReadReq hits (Count)
system.cpu.dcache.ReadReq.misses::cpu.data       301035                       # number of ReadReq misses (Count)
system.cpu.dcache.ReadReq.misses::total        301035                       # number of ReadReq misses (Count)
system.cpu.dcache.ReadReq.missLatency::cpu.data  12057108500                       # number of ReadReq miss ticks (Tick)
system.cpu.dcache.ReadReq.missLatency::total  12057108500                       # number of ReadReq miss ticks (Tick)
system.cpu.dcache.ReadReq.accesses::cpu.data      3572451                       # number of ReadReq accesses(hits+misses) (Count)
system.cpu.dcache.ReadReq.accesses::total      3572451                       # number of ReadReq accesses(hits+misses) (Count)
system.cpu.dcache.ReadReq.missRate::cpu.data     0.084266                       # miss rate for ReadReq accesses (Ratio)
system.cpu.dcache.ReadReq.missRate::total     0.084266                       # miss rate for ReadReq accesses (Ratio)
system.cpu.dcache.ReadReq.avgMissLatency::cpu.data 40052.181640                       # average ReadReq miss latency ((Tick/Count))
system.cpu.dcache.ReadReq.avgMissLatency::total 40052.181640                       # average ReadReq miss latency ((Tick/Count))
system.cpu.dcache.ReadReq.mshrHits::cpu.data       186385                       # number of ReadReq MSHR hits (Count)
system.cpu.dcache.ReadReq.mshrHits::total       186385                       # number of ReadReq MSHR hits (Count)
system.cpu.dcache.ReadReq.mshrMisses::cpu.data       114650                       # number of ReadReq MSHR misses (Count)
system.cpu.dcache.ReadReq.mshrMisses::total       114650                       # number of ReadReq MSHR misses (Count)
system.cpu.dcache.ReadReq.mshrMissLatency::cpu.data   4132511000                       # number of ReadReq MSHR miss ticks (Tick)
system.cpu.dcache.ReadReq.mshrMissLatency::total   4132511000                       # number of ReadReq MSHR miss ticks (Tick)
system.cpu.dcache.ReadReq.mshrMissRate::cpu.data     0.032093                       # mshr miss rate for ReadReq accesses (Ratio)
system.cpu.dcache.ReadReq.mshrMissRate::total     0.032093                       # mshr miss rate for ReadReq accesses (Ratio)
system.cpu.dcache.ReadReq.avgMshrMissLatency::cpu.data 36044.579154                       # average ReadReq mshr miss latency ((Tick/Count))
system.cpu.dcache.ReadReq.avgMshrMissLatency::total 36044.579154                       # average ReadReq mshr miss latency ((Tick/Count))
system.cpu.dcache.SwapReq.hits::cpu.data          100                       # number of SwapReq hits (Count)
system.cpu.dcache.SwapReq.hits::total             100                       # number of SwapReq hits (Count)
system.cpu.dcache.SwapReq.misses::cpu.data            6                       # number of SwapReq misses (Count)
system.cpu.dcache.SwapReq.misses::total             6                       # number of SwapReq misses (Count)
system.cpu.dcache.SwapReq.missLatency::cpu.data       385000                       # number of SwapReq miss ticks (Tick)
system.cpu.dcache.SwapReq.missLatency::total       385000                       # number of SwapReq miss ticks (Tick)
system.cpu.dcache.SwapReq.accesses::cpu.data          106                       # number of SwapReq accesses(hits+misses) (Count)
system.cpu.dcache.SwapReq.accesses::total          106                       # number of SwapReq accesses(hits+misses) (Count)
system.cpu.dcache.SwapReq.missRate::cpu.data     0.056604                       # miss rate for SwapReq accesses (Ratio)
system.cpu.dcache.SwapReq.missRate::total     0.056604                       # miss rate for SwapReq accesses (Ratio)
system.cpu.dcache.SwapReq.avgMissLatency::cpu.data 64166.666667                       # average SwapReq miss latency ((Tick/Count))
system.cpu.dcache.SwapReq.avgMissLatency::total 64166.666667                       # average SwapReq miss latency ((Tick/Count))
system.cpu.dcache.SwapReq.mshrMisses::cpu.data            6                       # number of SwapReq MSHR misses (Count)
system.cpu.dcache.SwapReq.mshrMisses::total            6                       # number of SwapReq MSHR misses (Count)
system.cpu.dcache.SwapReq.mshrMissLatency::cpu.data       379000                       # number of SwapReq MSHR miss ticks (Tick)
system.cpu.dcache.SwapReq.mshrMissLatency::total       379000                       # number of SwapReq MSHR miss ticks (Tick)
system.cpu.dcache.SwapReq.mshrMissRate::cpu.data     0.056604                       # mshr miss rate for SwapReq accesses (Ratio)
system.cpu.dcache.SwapReq.mshrMissRate::total     0.056604                       # mshr miss rate for SwapReq accesses (Ratio)
system.cpu.dcache.SwapReq.avgMshrMissLatency::cpu.data 63166.666667                       # average SwapReq mshr miss latency ((Tick/Count))
system.cpu.dcache.SwapReq.avgMshrMissLatency::total 63166.666667                       # average SwapReq mshr miss latency ((Tick/Count))
system.cpu.dcache.WriteLineReq.misses::cpu.data          131                       # number of WriteLineReq misses (Count)
system.cpu.dcache.WriteLineReq.misses::total          131                       # number of WriteLineReq misses (Count)
system.cpu.dcache.WriteLineReq.missLatency::cpu.data      4174908                       # number of WriteLineReq miss ticks (Tick)
system.cpu.dcache.WriteLineReq.missLatency::total      4174908                       # number of WriteLineReq miss ticks (Tick)
system.cpu.dcache.WriteLineReq.accesses::cpu.data          131                       # number of WriteLineReq accesses(hits+misses) (Count)
system.cpu.dcache.WriteLineReq.accesses::total          131                       # number of WriteLineReq accesses(hits+misses) (Count)
system.cpu.dcache.WriteLineReq.missRate::cpu.data            1                       # miss rate for WriteLineReq accesses (Ratio)
system.cpu.dcache.WriteLineReq.missRate::total            1                       # miss rate for WriteLineReq accesses (Ratio)
system.cpu.dcache.WriteLineReq.avgMissLatency::cpu.data 31869.526718                       # average WriteLineReq miss latency ((Tick/Count))
system.cpu.dcache.WriteLineReq.avgMissLatency::total 31869.526718                       # average WriteLineReq miss latency ((Tick/Count))
system.cpu.dcache.WriteLineReq.mshrMisses::cpu.data          131                       # number of WriteLineReq MSHR misses (Count)
system.cpu.dcache.WriteLineReq.mshrMisses::total          131                       # number of WriteLineReq MSHR misses (Count)
system.cpu.dcache.WriteLineReq.mshrMissLatency::cpu.data      4043908                       # number of WriteLineReq MSHR miss ticks (Tick)
system.cpu.dcache.WriteLineReq.mshrMissLatency::total      4043908                       # number of WriteLineReq MSHR miss ticks (Tick)
system.cpu.dcache.WriteLineReq.mshrMissRate::cpu.data            1                       # mshr miss rate for WriteLineReq accesses (Ratio)
system.cpu.dcache.WriteLineReq.mshrMissRate::total            1                       # mshr miss rate for WriteLineReq accesses (Ratio)
system.cpu.dcache.WriteLineReq.avgMshrMissLatency::cpu.data 30869.526718                       # average WriteLineReq mshr miss latency ((Tick/Count))
system.cpu.dcache.WriteLineReq.avgMshrMissLatency::total 30869.526718                       # average WriteLineReq mshr miss latency ((Tick/Count))
system.cpu.dcache.WriteReq.hits::cpu.data       185377                       # number of WriteReq hits (Count)
system.cpu.dcache.WriteReq.hits::total         185377                       # number of WriteReq hits (Count)
system.cpu.dcache.WriteReq.misses::cpu.data        34375                       # number of WriteReq misses (Count)
system.cpu.dcache.WriteReq.misses::total        34375                       # number of WriteReq misses (Count)
system.cpu.dcache.WriteReq.missLatency::cpu.data   2666732787                       # number of WriteReq miss ticks (Tick)
system.cpu.dcache.WriteReq.missLatency::total   2666732787                       # number of WriteReq miss ticks (Tick)
system.cpu.dcache.WriteReq.accesses::cpu.data       219752                       # number of WriteReq accesses(hits+misses) (Count)
system.cpu.dcache.WriteReq.accesses::total       219752                       # number of WriteReq accesses(hits+misses) (Count)
system.cpu.dcache.WriteReq.missRate::cpu.data     0.156426                       # miss rate for WriteReq accesses (Ratio)
system.cpu.dcache.WriteReq.missRate::total     0.156426                       # miss rate for WriteReq accesses (Ratio)
system.cpu.dcache.WriteReq.avgMissLatency::cpu.data 77577.681076                       # average WriteReq miss latency ((Tick/Count))
system.cpu.dcache.WriteReq.avgMissLatency::total 77577.681076                       # average WriteReq miss latency ((Tick/Count))
system.cpu.dcache.WriteReq.mshrHits::cpu.data         3450                       # number of WriteReq MSHR hits (Count)
system.cpu.dcache.WriteReq.mshrHits::total         3450                       # number of WriteReq MSHR hits (Count)
system.cpu.dcache.WriteReq.mshrMisses::cpu.data        30925                       # number of WriteReq MSHR misses (Count)
system.cpu.dcache.WriteReq.mshrMisses::total        30925                       # number of WriteReq MSHR misses (Count)
system.cpu.dcache.WriteReq.mshrMissLatency::cpu.data   2433851503                       # number of WriteReq MSHR miss ticks (Tick)
system.cpu.dcache.WriteReq.mshrMissLatency::total   2433851503                       # number of WriteReq MSHR miss ticks (Tick)
system.cpu.dcache.WriteReq.mshrMissRate::cpu.data     0.140727                       # mshr miss rate for WriteReq accesses (Ratio)
system.cpu.dcache.WriteReq.mshrMissRate::total     0.140727                       # mshr miss rate for WriteReq accesses (Ratio)
system.cpu.dcache.WriteReq.avgMshrMissLatency::cpu.data 78701.746257                       # average WriteReq mshr miss latency ((Tick/Count))
system.cpu.dcache.WriteReq.avgMshrMissLatency::total 78701.746257                       # average WriteReq mshr miss latency ((Tick/Count))
system.cpu.dcache.power_state.pwrStateResidencyTicks::UNDEFINED   4988979000                       # Cumulative time (in ticks) in various power states (Tick)
system.cpu.dcache.tags.tagsInUse          1016.494365                       # Average ticks per tags in use ((Tick/Count))
system.cpu.dcache.tags.totalRefs              3602605                       # Total number of references to valid blocks. (Count)
system.cpu.dcache.tags.sampledRefs             145712                       # Sample count of references to valid blocks. (Count)
system.cpu.dcache.tags.avgRefs              24.724148                       # Average number of references to valid blocks. ((Count/Count))
system.cpu.dcache.tags.warmupTick              253500                       # The tick when the warmup percentage was hit. (Tick)
system.cpu.dcache.tags.occupancies::cpu.data  1016.494365                       # Average occupied blocks per tick, per requestor ((Count/Tick))
system.cpu.dcache.tags.avgOccs::cpu.data     0.992670                       # Average percentage of cache occupancy ((Ratio/Tick))
system.cpu.dcache.tags.avgOccs::total        0.992670                       # Average percentage of cache occupancy ((Ratio/Tick))
system.cpu.dcache.tags.occupanciesTaskId::1024         1024                       # Occupied blocks per task id (Count)
system.cpu.dcache.tags.ageTaskId_1024::0           90                       # Occupied blocks per task id, per block age (Count)
system.cpu.dcache.tags.ageTaskId_1024::1          916                       # Occupied blocks per task id, per block age (Count)
system.cpu.dcache.tags.ageTaskId_1024::2           16                       # Occupied blocks per task id, per block age (Count)
system.cpu.dcache.tags.ageTaskId_1024::3            2                       # Occupied blocks per task id, per block age (Count)
system.cpu.dcache.tags.ratioOccsTaskId::1024            1                       # Ratio of occupied blocks and all blocks, per task id (Ratio)
system.cpu.dcache.tags.tagAccesses           15315472                       # Number of tag accesses (Count)
system.cpu.dcache.tags.dataAccesses          15315472                       # Number of data accesses (Count)
system.cpu.dcache.tags.power_state.pwrStateResidencyTicks::UNDEFINED   4988979000                       # Cumulative time (in ticks) in various power states (Tick)
system.cpu.decode.idleCycles                  1275282                       # Number of cycles decode is idle (Cycle)
system.cpu.decode.blockedCycles               5326640                       # Number of cycles decode is blocked (Cycle)
system.cpu.decode.runCycles                   2885579                       # Number of cycles decode is running (Cycle)
system.cpu.decode.unblockCycles                334219                       # Number of cycles decode is unblocking (Cycle)
system.cpu.decode.squashCycles                  17611                       # Number of cycles decode is squashing (Cycle)
system.cpu.decode.branchResolved               722554                       # Number of times decode resolved a branch (Count)
system.cpu.decode.branchMispred                   839                       # Number of times decode detected a branch misprediction (Count)
system.cpu.decode.decodedInsts               20575343                       # Number of instructions handled by decode (Count)
system.cpu.decode.squashedInsts                  2821                       # Number of squashed instructions handled by decode (Count)
system.cpu.fetch.icacheStallCycles            1636398                       # Number of cycles fetch is stalled on an Icache miss (Cycle)
system.cpu.fetch.insts                       16524488                       # Number of instructions fetch has processed (Count)
system.cpu.fetch.branches                     1772935                       # Number of branches that fetch encountered (Count)
system.cpu.fetch.predictedBranches             765958                       # Number of branches that fetch has predicted taken (Count)
system.cpu.fetch.cycles                       8178965                       # Number of cycles fetch has run and was not squashing or blocked (Cycle)
system.cpu.fetch.squashCycles                   36846                       # Number of cycles fetch has spent squashing (Cycle)
system.cpu.fetch.miscStallCycles                  728                       # Number of cycles fetch has spent waiting on interrupts, or bad addresses, or out of MSHRs (Cycle)
system.cpu.fetch.pendingTrapStallCycles          4753                       # Number of stall cycles due to pending traps (Cycle)
system.cpu.fetch.icacheWaitRetryStallCycles           64                       # Number of stall cycles due to full MSHR (Cycle)
system.cpu.fetch.cacheLines                   1588360                       # Number of cache lines fetched (Count)
system.cpu.fetch.icacheSquashes                  5779                       # Number of outstanding Icache misses that were squashed (Count)
system.cpu.fetch.nisnDist::samples            9839331                       # Number of instructions fetched each cycle (Total) (Count)
system.cpu.fetch.nisnDist::mean              2.113620                       # Number of instructions fetched each cycle (Total) (Count)
system.cpu.fetch.nisnDist::stdev             3.188978                       # Number of instructions fetched each cycle (Total) (Count)
system.cpu.fetch.nisnDist::underflows               0      0.00%      0.00% # Number of instructions fetched each cycle (Total) (Count)
system.cpu.fetch.nisnDist::0                  6252323     63.54%     63.54% # Number of instructions fetched each cycle (Total) (Count)
system.cpu.fetch.nisnDist::1                    56042      0.57%     64.11% # Number of instructions fetched each cycle (Total) (Count)
system.cpu.fetch.nisnDist::2                   732865      7.45%     71.56% # Number of instructions fetched each cycle (Total) (Count)
system.cpu.fetch.nisnDist::3                    91656      0.93%     72.49% # Number of instructions fetched each cycle (Total) (Count)
system.cpu.fetch.nisnDist::4                   468766      4.76%     77.26% # Number of instructions fetched each cycle (Total) (Count)
system.cpu.fetch.nisnDist::5                   156163      1.59%     78.84% # Number of instructions fetched each cycle (Total) (Count)
system.cpu.fetch.nisnDist::6                   103157      1.05%     79.89% # Number of instructions fetched each cycle (Total) (Count)
system.cpu.fetch.nisnDist::7                   101824      1.03%     80.93% # Number of instructions fetched each cycle (Total) (Count)
system.cpu.fetch.nisnDist::8                  1876535     19.07%    100.00% # Number of instructions fetched each cycle (Total) (Count)
system.cpu.fetch.nisnDist::overflows                0      0.00%    100.00% # Number of instructions fetched each cycle (Total) (Count)
system.cpu.fetch.nisnDist::min_value                0                       # Number of instructions fetched each cycle (Total) (Count)
system.cpu.fetch.nisnDist::max_value                8                       # Number of instructions fetched each cycle (Total) (Count)
system.cpu.fetch.nisnDist::total              9839331                       # Number of instructions fetched each cycle (Total) (Count)
system.cpu.fetch.branchRate                  0.177685                       # Number of branch fetches per cycle (Ratio)
system.cpu.fetch.rate                        1.656099                       # Number of inst fetches per cycle ((Count/Cycle))
system.cpu.icache.demandHits::cpu.inst        1585764                       # number of demand (read+write) hits (Count)
system.cpu.icache.demandHits::total           1585764                       # number of demand (read+write) hits (Count)
system.cpu.icache.overallHits::cpu.inst       1585764                       # number of overall hits (Count)
system.cpu.icache.overallHits::total          1585764                       # number of overall hits (Count)
system.cpu.icache.demandMisses::cpu.inst         2596                       # number of demand (read+write) misses (Count)
system.cpu.icache.demandMisses::total            2596                       # number of demand (read+write) misses (Count)
system.cpu.icache.overallMisses::cpu.inst         2596                       # number of overall misses (Count)
system.cpu.icache.overallMisses::total           2596                       # number of overall misses (Count)
system.cpu.icache.demandMissLatency::cpu.inst    175643998                       # number of demand (read+write) miss ticks (Tick)
system.cpu.icache.demandMissLatency::total    175643998                       # number of demand (read+write) miss ticks (Tick)
system.cpu.icache.overallMissLatency::cpu.inst    175643998                       # number of overall miss ticks (Tick)
system.cpu.icache.overallMissLatency::total    175643998                       # number of overall miss ticks (Tick)
system.cpu.icache.demandAccesses::cpu.inst      1588360                       # number of demand (read+write) accesses (Count)
system.cpu.icache.demandAccesses::total       1588360                       # number of demand (read+write) accesses (Count)
system.cpu.icache.overallAccesses::cpu.inst      1588360                       # number of overall (read+write) accesses (Count)
system.cpu.icache.overallAccesses::total      1588360                       # number of overall (read+write) accesses (Count)
system.cpu.icache.demandMissRate::cpu.inst     0.001634                       # miss rate for demand accesses (Ratio)
system.cpu.icache.demandMissRate::total      0.001634                       # miss rate for demand accesses (Ratio)
system.cpu.icache.overallMissRate::cpu.inst     0.001634                       # miss rate for overall accesses (Ratio)
system.cpu.icache.overallMissRate::total     0.001634                       # miss rate for overall accesses (Ratio)
system.cpu.icache.demandAvgMissLatency::cpu.inst 67659.475347                       # average overall miss latency in ticks ((Tick/Count))
system.cpu.icache.demandAvgMissLatency::total 67659.475347                       # average overall miss latency in ticks ((Tick/Count))
system.cpu.icache.overallAvgMissLatency::cpu.inst 67659.475347                       # average overall miss latency ((Tick/Count))
system.cpu.icache.overallAvgMissLatency::total 67659.475347                       # average overall miss latency ((Tick/Count))
system.cpu.icache.blockedCycles::no_mshrs          780                       # number of cycles access was blocked (Cycle)
system.cpu.icache.blockedCycles::no_targets            0                       # number of cycles access was blocked (Cycle)
system.cpu.icache.blockedCauses::no_mshrs           14                       # number of times access was blocked (Count)
system.cpu.icache.blockedCauses::no_targets            0                       # number of times access was blocked (Count)
system.cpu.icache.avgBlocked::no_mshrs      55.714286                       # average number of cycles each access was blocked ((Cycle/Count))
system.cpu.icache.avgBlocked::no_targets          nan                       # average number of cycles each access was blocked ((Cycle/Count))
system.cpu.icache.writebacks::writebacks         1773                       # number of writebacks (Count)
system.cpu.icache.writebacks::total              1773                       # number of writebacks (Count)
system.cpu.icache.demandMshrHits::cpu.inst          566                       # number of demand (read+write) MSHR hits (Count)
system.cpu.icache.demandMshrHits::total           566                       # number of demand (read+write) MSHR hits (Count)
system.cpu.icache.overallMshrHits::cpu.inst          566                       # number of overall MSHR hits (Count)
system.cpu.icache.overallMshrHits::total          566                       # number of overall MSHR hits (Count)
system.cpu.icache.demandMshrMisses::cpu.inst         2030                       # number of demand (read+write) MSHR misses (Count)
system.cpu.icache.demandMshrMisses::total         2030                       # number of demand (read+write) MSHR misses (Count)
system.cpu.icache.overallMshrMisses::cpu.inst         2030                       # number of overall MSHR misses (Count)
system.cpu.icache.overallMshrMisses::total         2030                       # number of overall MSHR misses (Count)
system.cpu.icache.demandMshrMissLatency::cpu.inst    139260999                       # number of demand (read+write) MSHR miss ticks (Tick)
system.cpu.icache.demandMshrMissLatency::total    139260999                       # number of demand (read+write) MSHR miss ticks (Tick)
system.cpu.icache.overallMshrMissLatency::cpu.inst    139260999                       # number of overall MSHR miss ticks (Tick)
system.cpu.icache.overallMshrMissLatency::total    139260999                       # number of overall MSHR miss ticks (Tick)
system.cpu.icache.demandMshrMissRate::cpu.inst     0.001278                       # mshr miss ratio for demand accesses (Ratio)
system.cpu.icache.demandMshrMissRate::total     0.001278                       # mshr miss ratio for demand accesses (Ratio)
system.cpu.icache.overallMshrMissRate::cpu.inst     0.001278                       # mshr miss ratio for overall accesses (Ratio)
system.cpu.icache.overallMshrMissRate::total     0.001278                       # mshr miss ratio for overall accesses (Ratio)
system.cpu.icache.demandAvgMshrMissLatency::cpu.inst 68601.477340                       # average overall mshr miss latency ((Tick/Count))
system.cpu.icache.demandAvgMshrMissLatency::total 68601.477340                       # average overall mshr miss latency ((Tick/Count))
system.cpu.icache.overallAvgMshrMissLatency::cpu.inst 68601.477340                       # average overall mshr miss latency ((Tick/Count))
system.cpu.icache.overallAvgMshrMissLatency::total 68601.477340                       # average overall mshr miss latency ((Tick/Count))
system.cpu.icache.replacements                   1773                       # number of replacements (Count)
system.cpu.icache.ReadReq.hits::cpu.inst      1585764                       # number of ReadReq hits (Count)
system.cpu.icache.ReadReq.hits::total         1585764                       # number of ReadReq hits (Count)
system.cpu.icache.ReadReq.misses::cpu.inst         2596                       # number of ReadReq misses (Count)
system.cpu.icache.ReadReq.misses::total          2596                       # number of ReadReq misses (Count)
system.cpu.icache.ReadReq.missLatency::cpu.inst    175643998                       # number of ReadReq miss ticks (Tick)
system.cpu.icache.ReadReq.missLatency::total    175643998                       # number of ReadReq miss ticks (Tick)
system.cpu.icache.ReadReq.accesses::cpu.inst      1588360                       # number of ReadReq accesses(hits+misses) (Count)
system.cpu.icache.ReadReq.accesses::total      1588360                       # number of ReadReq accesses(hits+misses) (Count)
system.cpu.icache.ReadReq.missRate::cpu.inst     0.001634                       # miss rate for ReadReq accesses (Ratio)
system.cpu.icache.ReadReq.missRate::total     0.001634                       # miss rate for ReadReq accesses (Ratio)
system.cpu.icache.ReadReq.avgMissLatency::cpu.inst 67659.475347                       # average ReadReq miss latency ((Tick/Count))
system.cpu.icache.ReadReq.avgMissLatency::total 67659.475347                       # average ReadReq miss latency ((Tick/Count))
system.cpu.icache.ReadReq.mshrHits::cpu.inst          566                       # number of ReadReq MSHR hits (Count)
system.cpu.icache.ReadReq.mshrHits::total          566                       # number of ReadReq MSHR hits (Count)
system.cpu.icache.ReadReq.mshrMisses::cpu.inst         2030                       # number of ReadReq MSHR misses (Count)
system.cpu.icache.ReadReq.mshrMisses::total         2030                       # number of ReadReq MSHR misses (Count)
system.cpu.icache.ReadReq.mshrMissLatency::cpu.inst    139260999                       # number of ReadReq MSHR miss ticks (Tick)
system.cpu.icache.ReadReq.mshrMissLatency::total    139260999                       # number of ReadReq MSHR miss ticks (Tick)
system.cpu.icache.ReadReq.mshrMissRate::cpu.inst     0.001278                       # mshr miss rate for ReadReq accesses (Ratio)
system.cpu.icache.ReadReq.mshrMissRate::total     0.001278                       # mshr miss rate for ReadReq accesses (Ratio)
system.cpu.icache.ReadReq.avgMshrMissLatency::cpu.inst 68601.477340                       # average ReadReq mshr miss latency ((Tick/Count))
system.cpu.icache.ReadReq.avgMshrMissLatency::total 68601.477340                       # average ReadReq mshr miss latency ((Tick/Count))
system.cpu.icache.power_state.pwrStateResidencyTicks::UNDEFINED   4988979000                       # Cumulative time (in ticks) in various power states (Tick)
system.cpu.icache.tags.tagsInUse           255.213127                       # Average ticks per tags in use ((Tick/Count))
system.cpu.icache.tags.totalRefs              1587793                       # Total number of references to valid blocks. (Count)
system.cpu.icache.tags.sampledRefs               2029                       # Sample count of references to valid blocks. (Count)
system.cpu.icache.tags.avgRefs             782.549532                       # Average number of references to valid blocks. ((Count/Count))
system.cpu.icache.tags.warmupTick               87500                       # The tick when the warmup percentage was hit. (Tick)
system.cpu.icache.tags.occupancies::cpu.inst   255.213127                       # Average occupied blocks per tick, per requestor ((Count/Tick))
system.cpu.icache.tags.avgOccs::cpu.inst     0.996926                       # Average percentage of cache occupancy ((Ratio/Tick))
system.cpu.icache.tags.avgOccs::total        0.996926                       # Average percentage of cache occupancy ((Ratio/Tick))
system.cpu.icache.tags.occupanciesTaskId::1024          256                       # Occupied blocks per task id (Count)
system.cpu.icache.tags.ageTaskId_1024::0           73                       # Occupied blocks per task id, per block age (Count)
system.cpu.icache.tags.ageTaskId_1024::1          100                       # Occupied blocks per task id, per block age (Count)
system.cpu.icache.tags.ageTaskId_1024::3           83                       # Occupied blocks per task id, per block age (Count)
system.cpu.icache.tags.ratioOccsTaskId::1024            1                       # Ratio of occupied blocks and all blocks, per task id (Ratio)
system.cpu.icache.tags.tagAccesses            6355469                       # Number of tag accesses (Count)
system.cpu.icache.tags.dataAccesses           6355469                       # Number of data accesses (Count)
system.cpu.icache.tags.power_state.pwrStateResidencyTicks::UNDEFINED   4988979000                       # Cumulative time (in ticks) in various power states (Tick)
system.cpu.iew.idleCycles                           0                       # Number of cycles IEW is idle (Cycle)
system.cpu.iew.squashCycles                     17611                       # Number of cycles IEW is squashing (Cycle)
system.cpu.iew.blockCycles                    3075229                       # Number of cycles IEW is blocking (Cycle)
system.cpu.iew.unblockCycles                   129877                       # Number of cycles IEW is unblocking (Cycle)
system.cpu.iew.dispatchedInsts               20423372                       # Number of instructions dispatched to IQ (Count)
system.cpu.iew.dispSquashedInsts                 1901                       # Number of squashed instructions skipped by dispatch (Count)
system.cpu.iew.dispLoadInsts                  3633974                       # Number of dispatched load instructions (Count)
system.cpu.iew.dispStoreInsts                  257158                       # Number of dispatched store instructions (Count)
system.cpu.iew.dispNonSpecInsts                   392                       # Number of dispatched non-speculative instructions (Count)
system.cpu.iew.iqFullEvents                     51030                       # Number of times the IQ has become full, causing a stall (Count)
system.cpu.iew.lsqFullEvents                    27007                       # Number of times the LSQ has become full, causing a stall (Count)
system.cpu.iew.memOrderViolationEvents             88                       # Number of memory order violations (Count)
system.cpu.iew.predictedTakenIncorrect           7836                       # Number of branches that were predicted taken incorrectly (Count)
system.cpu.iew.predictedNotTakenIncorrect        11709                       # Number of branches that were predicted not taken incorrectly (Count)
system.cpu.iew.branchMispredicts                19545                       # Number of branch mispredicts detected at execute (Count)
system.cpu.iew.instsToCommit                 20131647                       # Cumulative count of insts sent to commit (Count)
system.cpu.iew.writebackCount                20120472                       # Cumulative count of insts written-back (Count)
system.cpu.iew.producerInst                  15550960                       # Number of instructions producing a value (Count)
system.cpu.iew.consumerInst                  27249190                       # Number of instructions consuming a value (Count)
system.cpu.iew.wbRate                        2.016492                       # Insts written-back per cycle ((Count/Cycle))
system.cpu.iew.wbFanout                      0.570694                       # Average fanout of values written-back ((Count/Count))
system.cpu.lsq0.forwLoads                       26460                       # Number of loads that had data forwarded from stores (Count)
system.cpu.lsq0.squashedLoads                  115774                       # Number of loads squashed (Count)
system.cpu.lsq0.ignoredResponses                   41                       # Number of memory responses ignored because the instruction is squashed (Count)
system.cpu.lsq0.memOrderViolation                  88                       # Number of memory ordering violations (Count)
system.cpu.lsq0.squashedStores                  37183                       # Number of stores squashed (Count)
system.cpu.lsq0.rescheduledLoads                 9257                       # Number of loads that were rescheduled (Count)
system.cpu.lsq0.blockedByCache                   6612                       # Number of times an access to memory failed due to the cache being blocked (Count)
system.cpu.lsq0.loadToUse::samples            3518200                       # Distribution of cycle latency between the first time a load is issued and its completion (Unspecified)
system.cpu.lsq0.loadToUse::mean             10.416557                       # Distribution of cycle latency between the first time a load is issued and its completion (Unspecified)
system.cpu.lsq0.loadToUse::stdev            34.938748                       # Distribution of cycle latency between the first time a load is issued and its completion (Unspecified)
system.cpu.lsq0.loadToUse::0-9                3216806     91.43%     91.43% # Distribution of cycle latency between the first time a load is issued and its completion (Unspecified)
system.cpu.lsq0.loadToUse::10-19                27428      0.78%     92.21% # Distribution of cycle latency between the first time a load is issued and its completion (Unspecified)
system.cpu.lsq0.loadToUse::20-29               149950      4.26%     96.48% # Distribution of cycle latency between the first time a load is issued and its completion (Unspecified)
system.cpu.lsq0.loadToUse::30-39                 2881      0.08%     96.56% # Distribution of cycle latency between the first time a load is issued and its completion (Unspecified)
system.cpu.lsq0.loadToUse::40-49                 1340      0.04%     96.59% # Distribution of cycle latency between the first time a load is issued and its completion (Unspecified)
[...]
system.mem_ctrls.dram.perBankWrBursts::10         2605                       # Per bank write bursts (Count)
system.mem_ctrls.dram.perBankWrBursts::11         3031                       # Per bank write bursts (Count)
system.mem_ctrls.dram.perBankWrBursts::12         1234                       # Per bank write bursts (Count)
system.mem_ctrls.dram.perBankWrBursts::13         2174                       # Per bank write bursts (Count)
system.mem_ctrls.dram.perBankWrBursts::14         1596                       # Per bank write bursts (Count)
system.mem_ctrls.dram.perBankWrBursts::15         1739                       # Per bank write bursts (Count)
system.mem_ctrls.dram.totQLat               688085750                       # Total ticks spent queuing (Tick)
system.mem_ctrls.dram.totBusLat             357380000                       # Total ticks spent in databus transfers (Tick)
system.mem_ctrls.dram.totMemAccLat         2028260750                       # Total ticks spent from burst creation until serviced by the DRAM (Tick)
system.mem_ctrls.dram.avgQLat                 9626.81                       # Average queueing delay per DRAM burst ((Tick/Count))
system.mem_ctrls.dram.avgBusLat               5000.00                       # Average bus latency per DRAM burst ((Tick/Count))
system.mem_ctrls.dram.avgMemAccLat           28376.81                       # Average memory access latency per DRAM burst ((Tick/Count))
system.mem_ctrls.dram.readRowHits               62073                       # Number of row buffer hits during reads (Count)
system.mem_ctrls.dram.writeRowHits              26421                       # Number of row buffer hits during writes (Count)
system.mem_ctrls.dram.readRowHitRate            86.84                       # Row buffer hit rate for reads (Ratio)
system.mem_ctrls.dram.writeRowHitRate           88.13                       # Row buffer hit rate for writes (Ratio)
system.mem_ctrls.dram.bytesPerActivate::samples        12946                       # Bytes accessed per row activation (Byte)
system.mem_ctrls.dram.bytesPerActivate::mean   501.336629                       # Bytes accessed per row activation (Byte)
system.mem_ctrls.dram.bytesPerActivate::gmean   317.280072                       # Bytes accessed per row activation (Byte)
system.mem_ctrls.dram.bytesPerActivate::stdev   388.913226                       # Bytes accessed per row activation (Byte)
system.mem_ctrls.dram.bytesPerActivate::0-127         2736     21.13%     21.13% # Bytes accessed per row activation (Byte)
system.mem_ctrls.dram.bytesPerActivate::128-255         2170     16.76%     37.90% # Bytes accessed per row activation (Byte)
system.mem_ctrls.dram.bytesPerActivate::256-383         1282      9.90%     47.80% # Bytes accessed per row activation (Byte)
system.mem_ctrls.dram.bytesPerActivate::384-511          891      6.88%     54.68% # Bytes accessed per row activation (Byte)
system.mem_ctrls.dram.bytesPerActivate::512-639          672      5.19%     59.87% # Bytes accessed per row activation (Byte)
system.mem_ctrls.dram.bytesPerActivate::640-767          637      4.92%     64.79% # Bytes accessed per row activation (Byte)
system.mem_ctrls.dram.bytesPerActivate::768-895          650      5.02%     69.81% # Bytes accessed per row activation (Byte)
system.mem_ctrls.dram.bytesPerActivate::896-1023          545      4.21%     74.02% # Bytes accessed per row activation (Byte)
system.mem_ctrls.dram.bytesPerActivate::1024-1151         3363     25.98%    100.00% # Bytes accessed per row activation (Byte)
system.mem_ctrls.dram.bytesPerActivate::total        12946                       # Bytes accessed per row activation (Byte)
system.mem_ctrls.dram.bytesRead               4574464                       # Total bytes read (Byte)
system.mem_ctrls.dram.bytesWritten            1918592                       # Total bytes written (Byte)
system.mem_ctrls.dram.avgRdBW              916.913862                       # Average DRAM read bandwidth in MiBytes/s ((Byte/Second))
system.mem_ctrls.dram.avgWrBW              384.566061                       # Average DRAM write bandwidth in MiBytes/s ((Byte/Second))
system.mem_ctrls.dram.peakBW                 12800.00                       # Theoretical peak bandwidth in MiByte/s ((Byte/Second))
system.mem_ctrls.dram.busUtil                   10.17                       # Data bus utilization in percentage (Ratio)
system.mem_ctrls.dram.busUtilRead                7.16                       # Data bus utilization in percentage for reads (Ratio)
system.mem_ctrls.dram.busUtilWrite               3.00                       # Data bus utilization in percentage for writes (Ratio)
system.mem_ctrls.dram.pageHitRate               87.23                       # Row buffer hit rate, read and write combined (Ratio)
system.mem_ctrls.dram.power_state.pwrStateResidencyTicks::UNDEFINED   4988979000                       # Cumulative time (in ticks) in various power states (Tick)
system.mem_ctrls.dram.rank0.actEnergy        46188660                       # Energy for activate commands per rank (pJ) (Joule)
system.mem_ctrls.dram.rank0.preEnergy        24519495                       # Energy for precharge commands per rank (pJ) (Joule)
system.mem_ctrls.dram.rank0.readEnergy      246294300                       # Energy for read commands per rank (pJ) (Joule)
system.mem_ctrls.dram.rank0.writeEnergy      70443900                       # Energy for write commands per rank (pJ) (Joule)
system.mem_ctrls.dram.rank0.refreshEnergy 393369600.000000                       # Energy for refresh commands per rank (pJ) (Joule)
system.mem_ctrls.dram.rank0.actBackEnergy   1955657460                       # Energy for active background per rank (pJ) (Joule)
system.mem_ctrls.dram.rank0.preBackEnergy    268898880                       # Energy for precharge background per rank (pJ) (Joule)
system.mem_ctrls.dram.rank0.actPowerDownEnergy            0                       # Energy for active power-down per rank (pJ) (Joule)
system.mem_ctrls.dram.rank0.prePowerDownEnergy            0                       # Energy for precharge power-down per rank (pJ) (Joule)
system.mem_ctrls.dram.rank0.selfRefreshEnergy            0                       # Energy for self refresh per rank (pJ) (Joule)
system.mem_ctrls.dram.rank0.totalEnergy    3005372295                       # Total energy per rank (pJ) (Joule)
system.mem_ctrls.dram.rank0.averagePower   602.402274                       # Core power per rank (mW) (Watt)
system.mem_ctrls.dram.rank0.totalIdleTime            0                       # Total Idle time Per DRAM Rank (Tick)
system.mem_ctrls.dram.rank0.pwrStateTime::IDLE    681223250                       # Time in different power states (Tick)
system.mem_ctrls.dram.rank0.pwrStateTime::REF    166400000                       # Time in different power states (Tick)
system.mem_ctrls.dram.rank0.pwrStateTime::SREF            0                       # Time in different power states (Tick)
system.mem_ctrls.dram.rank0.pwrStateTime::PRE_PDN            0                       # Time in different power states (Tick)
system.mem_ctrls.dram.rank0.pwrStateTime::ACT   4141355750                       # Time in different power states (Tick)
system.mem_ctrls.dram.rank0.pwrStateTime::ACT_PDN            0                       # Time in different power states (Tick)
system.mem_ctrls.dram.rank1.actEnergy        46345740                       # Energy for activate commands per rank (pJ) (Joule)
system.mem_ctrls.dram.rank1.preEnergy        24610575                       # Energy for precharge commands per rank (pJ) (Joule)
system.mem_ctrls.dram.rank1.readEnergy      264044340                       # Energy for read commands per rank (pJ) (Joule)
system.mem_ctrls.dram.rank1.writeEnergy      86041260                       # Energy for write commands per rank (pJ) (Joule)
system.mem_ctrls.dram.rank1.refreshEnergy 393369600.000000                       # Energy for refresh commands per rank (pJ) (Joule)
system.mem_ctrls.dram.rank1.actBackEnergy   1996549260                       # Energy for active background per rank (pJ) (Joule)
system.mem_ctrls.dram.rank1.preBackEnergy    234463680                       # Energy for precharge background per rank (pJ) (Joule)
system.mem_ctrls.dram.rank1.actPowerDownEnergy            0                       # Energy for active power-down per rank (pJ) (Joule)
system.mem_ctrls.dram.rank1.prePowerDownEnergy            0                       # Energy for precharge power-down per rank (pJ) (Joule)
system.mem_ctrls.dram.rank1.selfRefreshEnergy            0                       # Energy for self refresh per rank (pJ) (Joule)
system.mem_ctrls.dram.rank1.totalEnergy    3045424455                       # Total energy per rank (pJ) (Joule)
system.mem_ctrls.dram.rank1.averagePower   610.430402                       # Core power per rank (mW) (Watt)
system.mem_ctrls.dram.rank1.totalIdleTime            0                       # Total Idle time Per DRAM Rank (Tick)
system.mem_ctrls.dram.rank1.pwrStateTime::IDLE    590461750                       # Time in different power states (Tick)
system.mem_ctrls.dram.rank1.pwrStateTime::REF    166400000                       # Time in different power states (Tick)
system.mem_ctrls.dram.rank1.pwrStateTime::SREF            0                       # Time in different power states (Tick)
system.mem_ctrls.dram.rank1.pwrStateTime::PRE_PDN            0                       # Time in different power states (Tick)
system.mem_ctrls.dram.rank1.pwrStateTime::ACT   4232117250                       # Time in different power states (Tick)
system.mem_ctrls.dram.rank1.pwrStateTime::ACT_PDN            0                       # Time in different power states (Tick)
system.mem_ctrls.power_state.pwrStateResidencyTicks::UNDEFINED   4988979000                       # Cumulative time (in ticks) in various power states (Tick)
system.membus.transDist::ReadResp               41217                       # Transaction distribution (Count)
system.membus.transDist::WritebackDirty         30003                       # Transaction distribution (Count)
system.membus.transDist::CleanEvict             37450                       # Transaction distribution (Count)
system.membus.transDist::ReadExReq              30278                       # Transaction distribution (Count)
system.membus.transDist::ReadExResp             30278                       # Transaction distribution (Count)
system.membus.transDist::ReadSharedReq          41217                       # Transaction distribution (Count)
system.membus.transDist::InvalidateReq            145                       # Transaction distribution (Count)
system.membus.pktCount_system.l2.mem_side_port::system.mem_ctrls.port       210588                       # Packet count per connected requestor and responder (Count)
system.membus.pktCount::total                  210588                       # Packet count per connected requestor and responder (Count)
system.membus.pktSize_system.l2.mem_side_port::system.mem_ctrls.port      6495872                       # Cumulative packet size per connected requestor and responder (Byte)
system.membus.pktSize::total                  6495872                       # Cumulative packet size per connected requestor and responder (Byte)
system.membus.snoops                                0                       # Total snoops (Count)
system.membus.snoopTraffic                          0                       # Total snoop traffic (Byte)
system.membus.snoopFanout::samples              71640                       # Request fanout histogram (Count)
system.membus.snoopFanout::mean                     0                       # Request fanout histogram (Count)
system.membus.snoopFanout::stdev                    0                       # Request fanout histogram (Count)
system.membus.snoopFanout::underflows               0      0.00%      0.00% # Request fanout histogram (Count)
system.membus.snoopFanout::0                    71640    100.00%    100.00% # Request fanout histogram (Count)
system.membus.snoopFanout::1                        0      0.00%    100.00% # Request fanout histogram (Count)
system.membus.snoopFanout::overflows                0      0.00%    100.00% # Request fanout histogram (Count)
system.membus.snoopFanout::min_value                0                       # Request fanout histogram (Count)
system.membus.snoopFanout::max_value                0                       # Request fanout histogram (Count)
system.membus.snoopFanout::total                71640                       # Request fanout histogram (Count)
system.membus.power_state.pwrStateResidencyTicks::UNDEFINED   4988979000                       # Cumulative time (in ticks) in various power states (Tick)
system.membus.reqLayer0.occupancy           273997500                       # Layer occupancy (ticks) (Tick)
system.membus.reqLayer0.utilization               0.1                       # Layer utilization (Ratio)
system.membus.respLayer1.occupancy          377275000                       # Layer occupancy (ticks) (Tick)
system.membus.respLayer1.utilization              0.1                       # Layer utilization (Ratio)
system.membus.snoop_filter.totRequests         139093                       # Total number of requests made to the snoop filter. (Count)
system.membus.snoop_filter.hitSingleRequests        67453                       # Number of requests hitting in the snoop filter with a single holder of the requested data. (Count)
system.membus.snoop_filter.hitMultiRequests            0                       # Number of requests hitting in the snoop filter with multiple (>1) holders of the requested data. (Count)
system.membus.snoop_filter.totSnoops                0                       # Total number of snoops made to the snoop filter. (Count)
system.membus.snoop_filter.hitSingleSnoops            0                       # Number of snoops hitting in the snoop filter with a single holder of the requested data. (Count)
system.membus.snoop_filter.hitMultiSnoops            0                       # Number of snoops hitting in the snoop filter with multiple (>1) holders of the requested data. (Count)
system.tol2bus.transDist::ReadResp             116679                       # Transaction distribution (Count)
system.tol2bus.transDist::WritebackDirty        61621                       # Transaction distribution (Count)
system.tol2bus.transDist::WritebackClean         1773                       # Transaction distribution (Count)
system.tol2bus.transDist::CleanEvict           151139                       # Transaction distribution (Count)
system.tol2bus.transDist::ReadExReq             30916                       # Transaction distribution (Count)
system.tol2bus.transDist::ReadExResp            30916                       # Transaction distribution (Count)
system.tol2bus.transDist::ReadCleanReq           2030                       # Transaction distribution (Count)
system.tol2bus.transDist::ReadSharedReq        114650                       # Transaction distribution (Count)
system.tol2bus.transDist::InvalidateReq           146                       # Transaction distribution (Count)
system.tol2bus.transDist::InvalidateResp          146                       # Transaction distribution (Count)
system.tol2bus.pktCount_system.cpu.icache.mem_side_port::system.l2.cpu_side_port         5832                       # Packet count per connected requestor and responder (Count)
system.tol2bus.pktCount_system.cpu.dcache.mem_side_port::system.l2.cpu_side_port       436112                       # Packet count per connected requestor and responder (Count)
system.tol2bus.pktCount::total                 441944                       # Packet count per connected requestor and responder (Count)
system.tol2bus.pktSize_system.cpu.icache.mem_side_port::system.l2.cpu_side_port       243328                       # Cumulative packet size per connected requestor and responder (Byte)
system.tol2bus.pktSize_system.cpu.dcache.mem_side_port::system.l2.cpu_side_port     11339776                       # Cumulative packet size per connected requestor and responder (Byte)
system.tol2bus.pktSize::total                11583104                       # Cumulative packet size per connected requestor and responder (Byte)
system.tol2bus.snoops                           68072                       # Total snoops (Count)
system.tol2bus.snoopTraffic                   1920192                       # Total snoop traffic (Byte)
system.tol2bus.snoopFanout::samples            215814                       # Request fanout histogram (Count)
system.tol2bus.snoopFanout::mean             0.004536                       # Request fanout histogram (Count)
system.tol2bus.snoopFanout::stdev            0.067199                       # Request fanout histogram (Count)
system.tol2bus.snoopFanout::underflows              0      0.00%      0.00% # Request fanout histogram (Count)
system.tol2bus.snoopFanout::0                  214835     99.55%     99.55% # Request fanout histogram (Count)
system.tol2bus.snoopFanout::1                     979      0.45%    100.00% # Request fanout histogram (Count)
system.tol2bus.snoopFanout::2                       0      0.00%    100.00% # Request fanout histogram (Count)
system.tol2bus.snoopFanout::overflows               0      0.00%    100.00% # Request fanout histogram (Count)
system.tol2bus.snoopFanout::min_value               0                       # Request fanout histogram (Count)
system.tol2bus.snoopFanout::max_value               1                       # Request fanout histogram (Count)
system.tol2bus.snoopFanout::total              215814                       # Request fanout histogram (Count)
system.tol2bus.power_state.pwrStateResidencyTicks::UNDEFINED   4988979000                       # Cumulative time (in ticks) in various power states (Tick)
system.tol2bus.reqLayer0.occupancy          180492500                       # Layer occupancy (ticks) (Tick)
system.tol2bus.reqLayer0.utilization              0.0                       # Layer utilization (Ratio)
system.tol2bus.respLayer0.occupancy           3044997                       # Layer occupancy (ticks) (Tick)
system.tol2bus.respLayer0.utilization             0.0                       # Layer utilization (Ratio)
system.tol2bus.respLayer1.occupancy         218422000                       # Layer occupancy (ticks) (Tick)
system.tol2bus.respLayer1.utilization             0.0                       # Layer utilization (Ratio)
system.tol2bus.snoop_filter.totRequests        294203                       # Total number of requests made to the snoop filter. (Count)
system.tol2bus.snoop_filter.hitSingleRequests       146461                       # Number of requests hitting in the snoop filter with a single holder of the requested data. (Count)
system.tol2bus.snoop_filter.hitMultiRequests            1                       # Number of requests hitting in the snoop filter with multiple (>1) holders of the requested data. (Count)
system.tol2bus.snoop_filter.totSnoops             978                       # Total number of snoops made to the snoop filter. (Count)
system.tol2bus.snoop_filter.hitSingleSnoops          978                       # Number of snoops hitting in the snoop filter with a single holder of the requested data. (Count)
system.tol2bus.snoop_filter.hitMultiSnoops            0                       # Number of snoops hitting in the snoop filter with multiple (>1) holders of the requested data. (Count)
system.voltage_domain.voltage                       1                       # Voltage in Volts (Volt)
system.workload.inst.arm                            0                       # number of arm instructions executed (Count)
system.workload.inst.quiesce                        0                       # number of quiesce instructions executed (Count)

---------- End Simulation Statistics   ----------
