
---------- Begin Simulation Statistics ----------
simSeconds                                   0.000036                       # Number of seconds simulated (Second)
simTicks                                     35837000                       # Number of ticks simulated (Tick)
finalTick                                  1031314000                       # Number of ticks from beginning of simulation (restored from checkpoints and never reset) (Tick)
simFreq                                  1000000000000                       # The number of ticks per simulated second ((Tick/Second))
hostSeconds                                      0.29                       # Real time elapsed on the host (Second)
hostTickRate                                124362070                       # The number of ticks simulated per host second (ticks/s) ((Tick/Second))
hostMemory                                     680136                       # Number of bytes of host memory used (Byte)
simInsts                                      1724862                       # Number of instructions simulated (Count)
simOps                                        2002441                       # Number of ops (including micro ops) simulated (Count)
hostInstRate                                  5982957                       # Simulator instruction rate (inst/s) ((Count/Second))
hostOpRate                                    6945471                       # Simulator op (including micro ops) rate (op/s) ((Count/Second))
system.clk_domain.clock                          1000                       # Clock period in ticks (Tick)
system.cpu.numCycles                            71674                       # Number of cpu cycles simulated (Cycle)
system.cpu.numWorkItemsStarted                      0                       # Number of work items this cpu started (Count)
system.cpu.numWorkItemsCompleted                    0                       # Number of work items this cpu completed (Count)
system.cpu.instsAdded                           81117                       # Number of instructions added to the IQ (excludes non-spec) (Count)
system.cpu.nonSpecInstsAdded                        2                       # Number of non-speculative instructions added to the IQ (Count)
system.cpu.instsIssued                          81021                       # Number of instructions issued (Count)
system.cpu.squashedInstsIssued                    106                       # Number of squashed instructions issued (Count)
system.cpu.squashedInstsExamined                 5333                       # Number of squashed instructions iterated over during squash; mainly for profiling (Count)
system.cpu.squashedOperandsExamined             12447                       # Number of squashed operands that are examined and possibly removed from graph (Count)
system.cpu.squashedNonSpecRemoved                   1                       # Number of squashed non-spec instructions that were removed (Count)
system.cpu.numIssuedDist::samples               68075                       # Number of insts issued each cycle (Count)
system.cpu.numIssuedDist::mean               1.190173                       # Number of insts issued each cycle (Count)
system.cpu.numIssuedDist::stdev              1.716340                       # Number of insts issued each cycle (Count)
system.cpu.numIssuedDist::underflows                0      0.00%      0.00% # Number of insts issued each cycle (Count)
system.cpu.numIssuedDist::0                     39783     58.44%     58.44% # Number of insts issued each cycle (Count)
system.cpu.numIssuedDist::1                      5071      7.45%     65.89% # Number of insts issued each cycle (Count)
system.cpu.numIssuedDist::2                      7750     11.38%     77.27% # Number of insts issued each cycle (Count)
system.cpu.numIssuedDist::3                      9071     13.33%     90.60% # Number of insts issued each cycle (Count)
system.cpu.numIssuedDist::4                      2365      3.47%     94.07% # Number of insts issued each cycle (Count)
system.cpu.numIssuedDist::5                       791      1.16%     95.23% # Number of insts issued each cycle (Count)
system.cpu.numIssuedDist::6                      2986      4.39%     99.62% # Number of insts issued each cycle (Count)
system.cpu.numIssuedDist::7                       158      0.23%     99.85% # Number of insts issued each cycle (Count)
system.cpu.numIssuedDist::8                       100      0.15%    100.00% # Number of insts issued each cycle (Count)
system.cpu.numIssuedDist::overflows                 0      0.00%    100.00% # Number of insts issued each cycle (Count)
system.cpu.numIssuedDist::min_value                 0                       # Number of insts issued each cycle (Count)
system.cpu.numIssuedDist::max_value                 8                       # Number of insts issued each cycle (Count)
system.cpu.numIssuedDist::total                 68075                       # Number of insts issued each cycle (Count)
system.cpu.statFuBusy::No_OpClass                   0      0.00%      0.00% # attempts to use FU when none available (Count)
system.cpu.statFuBusy::IntAlu                      16      6.87%      6.87% # attempts to use FU when none available (Count)
system.cpu.statFuBusy::IntMult                      0      0.00%      6.87% # attempts to use FU when none available (Count)
system.cpu.statFuBusy::IntDiv                       0      0.00%      6.87% # attempts to use FU when none available (Count)
system.cpu.statFuBusy::FloatAdd                     0      0.00%      6.87% # attempts to use FU when none available (Count)
system.cpu.statFuBusy::FloatCmp                     0      0.00%      6.87% # attempts to use FU when none available (Count)
system.cpu.statFuBusy::FloatCvt                     0      0.00%      6.87% # attempts to use FU when none available (Count)
system.cpu.statFuBusy::FloatMult                    0      0.00%      6.87% # attempts to use FU when none available (Count)
system.cpu.statFuBusy::FloatMultAcc                 0      0.00%      6.87% # attempts to use FU when none available (Count)
system.cpu.statFuBusy::FloatDiv                     0      0.00%      6.87% # attempts to use FU when none available (Count)
system.cpu.statFuBusy::FloatMisc                    0      0.00%      6.87% # attempts to use FU when none available (Count)
system.cpu.statFuBusy::FloatSqrt                    0      0.00%      6.87% # attempts to use FU when none available (Count)
system.cpu.statFuBusy::SimdAdd                     42     18.03%     24.89% # attempts to use FU when none available (Count)
system.cpu.statFuBusy::SimdAddAcc                   0      0.00%     24.89% # attempts to use FU when none available (Count)
system.cpu.statFuBusy::SimdAlu                      5      2.15%     27.04% # attempts to use FU when none available (Count)
system.cpu.statFuBusy::SimdCmp                      0      0.00%     27.04% # attempts to use FU when none available (Count)
system.cpu.statFuBusy::SimdCvt                      0      0.00%     27.04% # attempts to use FU when none available (Count)
system.cpu.statFuBusy::SimdMisc                     0      0.00%     27.04% # attempts to use FU when none available (Count)
system.cpu.statFuBusy::SimdMult                    16      6.87%     33.91% # attempts to use FU when none available (Count)
system.cpu.statFuBusy::SimdMultAcc                  0      0.00%     33.91% # attempts to use FU when none available (Count)
system.cpu.statFuBusy::SimdShift                    0      0.00%     33.91% # attempts to use FU when none available (Count)
system.cpu.statFuBusy::SimdShiftAcc                 0      0.00%     33.91% # attempts to use FU when none available (Count)
system.cpu.statFuBusy::SimdDiv                      0      0.00%     33.91% # attempts to use FU when none available (Count)
system.cpu.statFuBusy::SimdSqrt                     0      0.00%     33.91% # attempts to use FU when none available (Count)
system.cpu.statFuBusy::SimdFloatAdd                 0      0.00%     33.91% # attempts to use FU when none available (Count)
system.cpu.statFuBusy::SimdFloatAlu                 0      0.00%     33.91% # attempts to use FU when none available (Count)
system.cpu.statFuBusy::SimdFloatCmp                 0      0.00%     33.91% # attempts to use FU when none available (Count)
system.cpu.statFuBusy::SimdFloatCvt                 0      0.00%     33.91% # attempts to use FU when none available (Count)
system.cpu.statFuBusy::SimdFloatDiv                 0      0.00%     33.91% # attempts to use FU when none available (Count)
system.cpu.statFuBusy::SimdFloatMisc                0      0.00%     33.91% # attempts to use FU when none available (Count)
system.cpu.statFuBusy::SimdFloatMult                0      0.00%     33.91% # attempts to use FU when none available (Count)
system.cpu.statFuBusy::SimdFloatMultAcc             0      0.00%     33.91% # attempts to use FU when none available (Count)
system.cpu.statFuBusy::SimdFloatSqrt                0      0.00%     33.91% # attempts to use FU when none available (Count)
system.cpu.statFuBusy::SimdReduceAdd                0      0.00%     33.91% # attempts to use FU when none available (Count)
system.cpu.statFuBusy::SimdReduceAlu                0      0.00%     33.91% # attempts to use FU when none available (Count)
system.cpu.statFuBusy::SimdReduceCmp                0      0.00%     33.91% # attempts to use FU when none available (Count)
system.cpu.statFuBusy::SimdFloatReduceAdd            0      0.00%     33.91% # attempts to use FU when none available (Count)
system.cpu.statFuBusy::SimdFloatReduceCmp            0      0.00%     33.91% # attempts to use FU when none available (Count)
system.cpu.statFuBusy::SimdAes                      0      0.00%     33.91% # attempts to use FU when none available (Count)
system.cpu.statFuBusy::SimdAesMix                   0      0.00%     33.91% # attempts to use FU when none available (Count)
system.cpu.statFuBusy::SimdSha1Hash                 0      0.00%     33.91% # attempts to use FU when none available (Count)
system.cpu.statFuBusy::SimdSha1Hash2                0      0.00%     33.91% # attempts to use FU when none available (Count)
system.cpu.statFuBusy::SimdSha256Hash               0      0.00%     33.91% # attempts to use FU when none available (Count)
system.cpu.statFuBusy::SimdSha256Hash2              0      0.00%     33.91% # attempts to use FU when none available (Count)
system.cpu.statFuBusy::SimdShaSigma2                0      0.00%     33.91% # attempts to use FU when none available (Count)
system.cpu.statFuBusy::SimdShaSigma3                0      0.00%     33.91% # attempts to use FU when none available (Count)
system.cpu.statFuBusy::SimdPredAlu                  0      0.00%     33.91% # attempts to use FU when none available (Count)
system.cpu.statFuBusy::MemRead                    139     59.66%     93.56% # attempts to use FU when none available (Count)
system.cpu.statFuBusy::MemWrite                    15      6.44%    100.00% # attempts to use FU when none available (Count)
system.cpu.statFuBusy::FloatMemRead                 0      0.00%    100.00% # attempts to use FU when none available (Count)
system.cpu.statFuBusy::FloatMemWrite                0      0.00%    100.00% # attempts to use FU when none available (Count)
system.cpu.statFuBusy::IprAccess                    0      0.00%    100.00% # attempts to use FU when none available (Count)
system.cpu.statFuBusy::InstPrefetch                 0      0.00%    100.00% # attempts to use FU when none available (Count)
system.cpu.statIssuedInstType_0::No_OpClass         4185      5.17%      5.17% # Number of instructions issued per FU type, per thread (Count)
system.cpu.statIssuedInstType_0::IntAlu         30274     37.37%     42.53% # Number of instructions issued per FU type, per thread (Count)
system.cpu.statIssuedInstType_0::IntMult            5      0.01%     42.54% # Number of instructions issued per FU type, per thread (Count)
system.cpu.statIssuedInstType_0::IntDiv             0      0.00%     42.54% # Number of instructions issued per FU type, per thread (Count)
system.cpu.statIssuedInstType_0::FloatAdd            0      0.00%     42.54% # Number of instructions issued per FU type, per thread (Count)
system.cpu.statIssuedInstType_0::FloatCmp            0      0.00%     42.54% # Number of instructions issued per FU type, per thread (Count)
system.cpu.statIssuedInstType_0::FloatCvt            0      0.00%     42.54% # Number of instructions issued per FU type, per thread (Count)
system.cpu.statIssuedInstType_0::FloatMult            0      0.00%     42.54% # Number of instructions issued per FU type, per thread (Count)
system.cpu.statIssuedInstType_0::FloatMultAcc            0      0.00%     42.54% # Number of instructions issued per FU type, per thread (Count)
system.cpu.statIssuedInstType_0::FloatDiv            0      0.00%     42.54% # Number of instructions issued per FU type, per thread (Count)
system.cpu.statIssuedInstType_0::FloatMisc            0      0.00%     42.54% # Number of instructions issued per FU type, per thread (Count)
system.cpu.statIssuedInstType_0::FloatSqrt            0      0.00%     42.54% # Number of instructions issued per FU type, per thread (Count)
system.cpu.statIssuedInstType_0::SimdAdd         8614     10.63%     53.17% # Number of instructions issued per FU type, per thread (Count)
system.cpu.statIssuedInstType_0::SimdAddAcc            0      0.00%     53.17% # Number of instructions issued per FU type, per thread (Count)
system.cpu.statIssuedInstType_0::SimdAlu           54      0.07%     53.24% # Number of instructions issued per FU type, per thread (Count)
system.cpu.statIssuedInstType_0::SimdCmp            0      0.00%     53.24% # Number of instructions issued per FU type, per thread (Count)
system.cpu.statIssuedInstType_0::SimdCvt            0      0.00%     53.24% # Number of instructions issued per FU type, per thread (Count)
system.cpu.statIssuedInstType_0::SimdMisc         8383     10.35%     63.58% # Number of instructions issued per FU type, per thread (Count)
system.cpu.statIssuedInstType_0::SimdMult         8372     10.33%     73.92% # Number of instructions issued per FU type, per thread (Count)
system.cpu.statIssuedInstType_0::SimdMultAcc            0      0.00%     73.92% # Number of instructions issued per FU type, per thread (Count)
system.cpu.statIssuedInstType_0::SimdShift            0      0.00%     73.92% # Number of instructions issued per FU type, per thread (Count)
system.cpu.statIssuedInstType_0::SimdShiftAcc            0      0.00%     73.92% # Number of instructions issued per FU type, per thread (Count)
system.cpu.statIssuedInstType_0::SimdDiv            0      0.00%     73.92% # Number of instructions issued per FU type, per thread (Count)
system.cpu.statIssuedInstType_0::SimdSqrt            0      0.00%     73.92% # Number of instructions issued per FU type, per thread (Count)
system.cpu.statIssuedInstType_0::SimdFloatAdd            0      0.00%     73.92% # Number of instructions issued per FU type, per thread (Count)
system.cpu.statIssuedInstType_0::SimdFloatAlu            0      0.00%     73.92% # Number of instructions issued per FU type, per thread (Count)
system.cpu.statIssuedInstType_0::SimdFloatCmp            0      0.00%     73.92% # Number of instructions issued per FU type, per thread (Count)
system.cpu.statIssuedInstType_0::SimdFloatCvt            0      0.00%     73.92% # Number of instructions issued per FU type, per thread (Count)
system.cpu.statIssuedInstType_0::SimdFloatDiv            0      0.00%     73.92% # Number of instructions issued per FU type, per thread (Count)
system.cpu.statIssuedInstType_0::SimdFloatMisc            0      0.00%     73.92% # Number of instructions issued per FU type, per thread (Count)
system.cpu.statIssuedInstType_0::SimdFloatMult            0      0.00%     73.92% # Number of instructions issued per FU type, per thread (Count)
system.cpu.statIssuedInstType_0::SimdFloatMultAcc            0      0.00%     73.92% # Number of instructions issued per FU type, per thread (Count)
system.cpu.statIssuedInstType_0::SimdFloatSqrt            0      0.00%     73.92% # Number of instructions issued per FU type, per thread (Count)
system.cpu.statIssuedInstType_0::SimdReduceAdd            0      0.00%     73.92% # Number of instructions issued per FU type, per thread (Count)
system.cpu.statIssuedInstType_0::SimdReduceAlu            0      0.00%     73.92% # Number of instructions issued per FU type, per thread (Count)
system.cpu.statIssuedInstType_0::SimdReduceCmp            0      0.00%     73.92% # Number of instructions issued per FU type, per thread (Count)
system.cpu.statIssuedInstType_0::SimdFloatReduceAdd            0      0.00%     73.92% # Number of instructions issued per FU type, per thread (Count)
system.cpu.statIssuedInstType_0::SimdFloatReduceCmp            0      0.00%     73.92% # Number of instructions issued per FU type, per thread (Count)
system.cpu.statIssuedInstType_0::SimdAes            0      0.00%     73.92% # Number of instructions issued per FU type, per thread (Count)
system.cpu.statIssuedInstType_0::SimdAesMix            0      0.00%     73.92% # Number of instructions issued per FU type, per thread (Count)
system.cpu.statIssuedInstType_0::SimdSha1Hash            0      0.00%     73.92% # Number of instructions issued per FU type, per thread (Count)
system.cpu.statIssuedInstType_0::SimdSha1Hash2            0      0.00%     73.92% # Number of instructions issued per FU type, per thread (Count)
system.cpu.statIssuedInstType_0::SimdSha256Hash            0      0.00%     73.92% # Number of instructions issued per FU type, per thread (Count)
system.cpu.statIssuedInstType_0::SimdSha256Hash2            0      0.00%     73.92% # Number of instructions issued per FU type, per thread (Count)
system.cpu.statIssuedInstType_0::SimdShaSigma2            0      0.00%     73.92% # Number of instructions issued per FU type, per thread (Count)
system.cpu.statIssuedInstType_0::SimdShaSigma3            0      0.00%     73.92% # Number of instructions issued per FU type, per thread (Count)
system.cpu.statIssuedInstType_0::SimdPredAlu            0      0.00%     73.92% # Number of instructions issued per FU type, per thread (Count)
system.cpu.statIssuedInstType_0::MemRead        16797     20.73%     94.65% # Number of instructions issued per FU type, per thread (Count)
system.cpu.statIssuedInstType_0::MemWrite         4337      5.35%    100.00% # Number of instructions issued per FU type, per thread (Count)
system.cpu.statIssuedInstType_0::FloatMemRead            0      0.00%    100.00% # Number of instructions issued per FU type, per thread (Count)
system.cpu.statIssuedInstType_0::FloatMemWrite            0      0.00%    100.00% # Number of instructions issued per FU type, per thread (Count)
system.cpu.statIssuedInstType_0::IprAccess            0      0.00%    100.00% # Number of instructions issued per FU type, per thread (Count)
system.cpu.statIssuedInstType_0::InstPrefetch            0      0.00%    100.00% # Number of instructions issued per FU type, per thread (Count)
system.cpu.statIssuedInstType_0::total          81021                       # Number of instructions issued per FU type, per thread (Count)
system.cpu.issueRate                         1.130410                       # Inst issue rate ((Count/Cycle))
system.cpu.fuBusy                                 233                       # FU busy when requested (Count)
system.cpu.fuBusyRate                        0.002876                       # FU busy rate (busy events/executed inst) ((Count/Count))
system.cpu.intInstQueueReads                   147364                       # Number of integer instruction queue reads (Count)
system.cpu.intInstQueueWrites                   41487                       # Number of integer instruction queue writes (Count)
system.cpu.intInstQueueWakeupAccesses           38659                       # Number of integer instruction queue wakeup accesses (Count)
system.cpu.fpInstQueueReads                         0                       # Number of floating instruction queue reads (Count)
system.cpu.fpInstQueueWrites                        0                       # Number of floating instruction queue writes (Count)
system.cpu.fpInstQueueWakeupAccesses                0                       # Number of floating instruction queue wakeup accesses (Count)
system.cpu.vecInstQueueReads                    83092                       # Number of vector instruction queue reads (Count)
system.cpu.vecInstQueueWrites                   44972                       # Number of vector instruction queue writes (Count)
system.cpu.vecInstQueueWakeupAccesses           38133                       # Number of vector instruction queue wakeup accesses (Count)
system.cpu.intAluAccesses                       39651                       # Number of integer alu accesses (Count)
system.cpu.fpAluAccesses                            0                       # Number of floating point alu accesses (Count)
system.cpu.vecAluAccesses                       37418                       # Number of vector alu accesses (Count)
system.cpu.numInsts                             80823                       # Number of executed instructions (Count)
system.cpu.numLoadInsts                         16696                       # Number of load instructions executed (Count)
system.cpu.numSquashedInsts                       198                       # Number of squashed instructions skipped in execute (Count)
system.cpu.numSwp                                   0                       # Number of swp insts executed (Count)
system.cpu.numNop                                  11                       # Number of nop insts executed (Count)
system.cpu.numRefs                              21030                       # Number of memory reference insts executed (Count)
system.cpu.numBranches                           5023                       # Number of branches executed (Count)
system.cpu.numStoreInsts                         4334                       # Number of stores executed (Count)
system.cpu.numRate                           1.127647                       # Inst execution rate ((Count/Cycle))
system.cpu.timesIdled                              32                       # Number of times that the entire CPU went into an idle state and unscheduled itself (Count)
system.cpu.idleCycles                            3599                       # Total number of cycles that the CPU has spent unscheduled due to idling (Cycle)
system.cpu.committedInsts                       67294                       # Number of Instructions Simulated (Count)
system.cpu.committedOps                         75785                       # Number of Ops (including micro ops) Simulated (Count)
system.cpu.cpi                               1.065088                       # CPI: Cycles Per Instruction ((Cycle/Count))
system.cpu.totalCpi                          1.065088                       # CPI: Total CPI of All Threads ((Cycle/Count))
system.cpu.ipc                               0.938890                       # IPC: Instructions Per Cycle ((Count/Cycle))
system.cpu.totalIpc                          0.938890                       # IPC: Total IPC of All Threads ((Count/Cycle))
system.cpu.intRegfileReads                      69942                       # Number of integer regfile reads (Count)
system.cpu.intRegfileWrites                     32988                       # Number of integer regfile writes (Count)
system.cpu.vecRegfileReads                      80593                       # number of vector regfile reads (Count)
system.cpu.ccRegfileReads                       14469                       # number of cc regfile reads (Count)
system.cpu.ccRegfileWrites                      14472                       # number of cc regfile writes (Count)
system.cpu.miscRegfileReads                     78555                       # number of misc regfile reads (Count)
system.cpu.MemDepUnit__0.insertedLoads          13705                       # Number of loads inserted to the mem dependence unit. (Count)
system.cpu.MemDepUnit__0.insertedStores          4514                       # Number of stores inserted to the mem dependence unit. (Count)
system.cpu.MemDepUnit__0.conflictingLoads         4144                       # Number of conflicting loads. (Count)
system.cpu.MemDepUnit__0.conflictingStores         4119                       # Number of conflicting stores. (Count)
system.cpu.MemDepUnit__1.insertedLoads              0                       # Number of loads inserted to the mem dependence unit. (Count)
system.cpu.MemDepUnit__1.insertedStores             0                       # Number of stores inserted to the mem dependence unit. (Count)
system.cpu.MemDepUnit__1.conflictingLoads            0                       # Number of conflicting loads. (Count)
system.cpu.MemDepUnit__1.conflictingStores            0                       # Number of conflicting stores. (Count)
system.cpu.MemDepUnit__2.insertedLoads              0                       # Number of loads inserted to the mem dependence unit. (Count)
system.cpu.MemDepUnit__2.insertedStores             0                       # Number of stores inserted to the mem dependence unit. (Count)
system.cpu.MemDepUnit__2.conflictingLoads            0                       # Number of conflicting loads. (Count)
system.cpu.MemDepUnit__2.conflictingStores            0                       # Number of conflicting stores. (Count)
system.cpu.MemDepUnit__3.insertedLoads              0                       # Number of loads inserted to the mem dependence unit. (Count)
system.cpu.MemDepUnit__3.insertedStores             0                       # Number of stores inserted to the mem dependence unit. (Count)
system.cpu.MemDepUnit__3.conflictingLoads            0                       # Number of conflicting loads. (Count)
system.cpu.MemDepUnit__3.conflictingStores            0                       # Number of conflicting stores. (Count)
system.cpu.branchPred.lookups                    5598                       # Number of BP lookups (Count)
system.cpu.branchPred.condPredicted              5355                       # Number of conditional branches predicted (Count)
system.cpu.branchPred.condIncorrect               304                       # Number of conditional branches incorrect (Count)
system.cpu.branchPred.BTBLookups                 5071                       # Number of BTB lookups (Count)
system.cpu.branchPred.BTBUpdates                   32                       # Number of BTB updates (Count)
system.cpu.branchPred.BTBHits                    5055                       # Number of BTB hits (Count)
system.cpu.branchPred.BTBHitRatio            0.996845                       # BTB Hit Ratio (Ratio)
system.cpu.branchPred.RASUsed                       3                       # Number of times the RAS was used to get a target. (Count)
system.cpu.branchPred.RASIncorrect                  0                       # Number of incorrect RAS predictions. (Count)
system.cpu.branchPred.indirectLookups              42                       # Number of indirect predictor lookups. (Count)
system.cpu.branchPred.indirectHits                  2                       # Number of indirect target hits. (Count)
system.cpu.branchPred.indirectMisses               40                       # Number of indirect misses. (Count)
system.cpu.branchPred.indirectMispredicted            3                       # Number of mispredicted indirect branches. (Count)
system.cpu.commit.commitSquashedInsts            5256                       # The number of squashed insts skipped by commit (Count)
system.cpu.commit.commitNonSpecStalls               1                       # The number of times commit has been forced to stall to communicate backwards (Count)
system.cpu.commit.branchMispredicts               299                       # The number of times a branch was mispredicted (Count)
system.cpu.commit.numCommittedDist::samples        67230                       # Number of insts commited each cycle (Count)
system.cpu.commit.numCommittedDist::mean     1.127354                       # Number of insts commited each cycle (Count)
system.cpu.commit.numCommittedDist::stdev     2.196547                       # Number of insts commited each cycle (Count)
system.cpu.commit.numCommittedDist::underflows            0      0.00%      0.00% # Number of insts commited each cycle (Count)
system.cpu.commit.numCommittedDist::0           44514     66.21%     66.21% # Number of insts commited each cycle (Count)
system.cpu.commit.numCommittedDist::1            6689      9.95%     76.16% # Number of insts commited each cycle (Count)
system.cpu.commit.numCommittedDist::2            7670     11.41%     87.57% # Number of insts commited each cycle (Count)
system.cpu.commit.numCommittedDist::3             221      0.33%     87.90% # Number of insts commited each cycle (Count)
system.cpu.commit.numCommittedDist::4            2050      3.05%     90.95% # Number of insts commited each cycle (Count)
system.cpu.commit.numCommittedDist::5             711      1.06%     92.01% # Number of insts commited each cycle (Count)
system.cpu.commit.numCommittedDist::6             352      0.52%     92.53% # Number of insts commited each cycle (Count)
system.cpu.commit.numCommittedDist::7             951      1.41%     93.94% # Number of insts commited each cycle (Count)
system.cpu.commit.numCommittedDist::8            4072      6.06%    100.00% # Number of insts commited each cycle (Count)
system.cpu.commit.numCommittedDist::overflows            0      0.00%    100.00% # Number of insts commited each cycle (Count)
system.cpu.commit.numCommittedDist::min_value            0                       # Number of insts commited each cycle (Count)
system.cpu.commit.numCommittedDist::max_value            8                       # Number of insts commited each cycle (Count)
system.cpu.commit.numCommittedDist::total        67230                       # Number of insts commited each cycle (Count)
system.cpu.commit.instsCommitted                67301                       # Number of instructions committed (Count)
system.cpu.commit.opsCommitted                  75792                       # Number of ops (including micro ops) committed (Count)
system.cpu.commit.memRefs                       16944                       # Number of memory references committed (Count)
system.cpu.commit.loads                         12619                       # Number of loads committed (Count)
system.cpu.commit.amos                              0                       # Number of atomic instructions committed (Count)
system.cpu.commit.membars                           0                       # Number of memory barriers committed (Count)
system.cpu.commit.branches                       4863                       # Number of branches committed (Count)
system.cpu.commit.vectorInstructions            38116                       # Number of committed Vector instructions. (Count)
system.cpu.commit.floating                          0                       # Number of committed floating point instructions. (Count)
system.cpu.commit.integer                       49707                       # Number of committed integer instructions. (Count)
system.cpu.commit.functionCalls                     1                       # Number of function calls committed. (Count)
system.cpu.commit.committedInstType_0::No_OpClass         4185      5.52%      5.52% # Class of committed instruction (Count)
system.cpu.commit.committedInstType_0::IntAlu        29244     38.58%     44.11% # Class of committed instruction (Count)
system.cpu.commit.committedInstType_0::IntMult            5      0.01%     44.11% # Class of committed instruction (Count)
system.cpu.commit.committedInstType_0::IntDiv            0      0.00%     44.11% # Class of committed instruction (Count)
system.cpu.commit.committedInstType_0::FloatAdd            0      0.00%     44.11% # Class of committed instruction (Count)
system.cpu.commit.committedInstType_0::FloatCmp            0      0.00%     44.11% # Class of committed instruction (Count)
system.cpu.commit.committedInstType_0::FloatCvt            0      0.00%     44.11% # Class of committed instruction (Count)
system.cpu.commit.committedInstType_0::FloatMult            0      0.00%     44.11% # Class of committed instruction (Count)
system.cpu.commit.committedInstType_0::FloatMultAcc            0      0.00%     44.11% # Class of committed instruction (Count)
system.cpu.commit.committedInstType_0::FloatDiv            0      0.00%     44.11% # Class of committed instruction (Count)
system.cpu.commit.committedInstType_0::FloatMisc            0      0.00%     44.11% # Class of committed instruction (Count)
system.cpu.commit.committedInstType_0::FloatSqrt            0      0.00%     44.11% # Class of committed instruction (Count)
system.cpu.commit.committedInstType_0::SimdAdd         8612     11.36%     55.48% # Class of committed instruction (Count)
system.cpu.commit.committedInstType_0::SimdAddAcc            0      0.00%     55.48% # Class of committed instruction (Count)
system.cpu.commit.committedInstType_0::SimdAlu           53      0.07%     55.55% # Class of committed instruction (Count)
system.cpu.commit.committedInstType_0::SimdCmp            0      0.00%     55.55% # Class of committed instruction (Count)
system.cpu.commit.committedInstType_0::SimdCvt            0      0.00%     55.55% # Class of committed instruction (Count)
system.cpu.commit.committedInstType_0::SimdMisc         8379     11.06%     66.60% # Class of committed instruction (Count)
system.cpu.commit.committedInstType_0::SimdMult         8370     11.04%     77.64% # Class of committed instruction (Count)
system.cpu.commit.committedInstType_0::SimdMultAcc            0      0.00%     77.64% # Class of committed instruction (Count)
system.cpu.commit.committedInstType_0::SimdShift            0      0.00%     77.64% # Class of committed instruction (Count)
system.cpu.commit.committedInstType_0::SimdShiftAcc            0      0.00%     77.64% # Class of committed instruction (Count)
system.cpu.commit.committedInstType_0::SimdDiv            0      0.00%     77.64% # Class of committed instruction (Count)
system.cpu.commit.committedInstType_0::SimdSqrt            0      0.00%     77.64% # Class of committed instruction (Count)
system.cpu.commit.committedInstType_0::SimdFloatAdd            0      0.00%     77.64% # Class of committed instruction (Count)
system.cpu.commit.committedInstType_0::SimdFloatAlu            0      0.00%     77.64% # Class of committed instruction (Count)
system.cpu.commit.committedInstType_0::SimdFloatCmp            0      0.00%     77.64% # Class of committed instruction (Count)
system.cpu.commit.committedInstType_0::SimdFloatCvt            0      0.00%     77.64% # Class of committed instruction (Count)
system.cpu.commit.committedInstType_0::SimdFloatDiv            0      0.00%     77.64% # Class of committed instruction (Count)
system.cpu.commit.committedInstType_0::SimdFloatMisc            0      0.00%     77.64% # Class of committed instruction (Count)
system.cpu.commit.committedInstType_0::SimdFloatMult            0      0.00%     77.64% # Class of committed instruction (Count)
system.cpu.commit.committedInstType_0::SimdFloatMultAcc            0      0.00%     77.64% # Class of committed instruction (Count)
system.cpu.commit.committedInstType_0::SimdFloatSqrt            0      0.00%     77.64% # Class of committed instruction (Count)
system.cpu.commit.committedInstType_0::SimdReduceAdd            0      0.00%     77.64% # Class of committed instruction (Count)
system.cpu.commit.committedInstType_0::SimdReduceAlu            0      0.00%     77.64% # Class of committed instruction (Count)
system.cpu.commit.committedInstType_0::SimdReduceCmp            0      0.00%     77.64% # Class of committed instruction (Count)
system.cpu.commit.committedInstType_0::SimdFloatReduceAdd            0      0.00%     77.64% # Class of committed instruction (Count)
system.cpu.commit.committedInstType_0::SimdFloatReduceCmp            0      0.00%     77.64% # Class of committed instruction (Count)
system.cpu.commit.committedInstType_0::SimdAes            0      0.00%     77.64% # Class of committed instruction (Count)
system.cpu.commit.committedInstType_0::SimdAesMix            0      0.00%     77.64% # Class of committed instruction (Count)
system.cpu.commit.committedInstType_0::SimdSha1Hash            0      0.00%     77.64% # Class of committed instruction (Count)
system.cpu.commit.committedInstType_0::SimdSha1Hash2            0      0.00%     77.64% # Class of committed instruction (Count)
system.cpu.commit.committedInstType_0::SimdSha256Hash            0      0.00%     77.64% # Class of committed instruction (Count)
system.cpu.commit.committedInstType_0::SimdSha256Hash2            0      0.00%     77.64% # Class of committed instruction (Count)
system.cpu.commit.committedInstType_0::SimdShaSigma2            0      0.00%     77.64% # Class of committed instruction (Count)
system.cpu.commit.committedInstType_0::SimdShaSigma3            0      0.00%     77.64% # Class of committed instruction (Count)
system.cpu.commit.committedInstType_0::SimdPredAlu            0      0.00%     77.64% # Class of committed instruction (Count)
system.cpu.commit.committedInstType_0::MemRead        12619     16.65%     94.29% # Class of committed instruction (Count)
system.cpu.commit.committedInstType_0::MemWrite         4325      5.71%    100.00% # Class of committed instruction (Count)
system.cpu.commit.committedInstType_0::FloatMemRead            0      0.00%    100.00% # Class of committed instruction (Count)
system.cpu.commit.committedInstType_0::FloatMemWrite            0      0.00%    100.00% # Class of committed instruction (Count)
system.cpu.commit.committedInstType_0::IprAccess            0      0.00%    100.00% # Class of committed instruction (Count)
system.cpu.commit.committedInstType_0::InstPrefetch            0      0.00%    100.00% # Class of committed instruction (Count)
system.cpu.commit.committedInstType_0::total        75792                       # Class of committed instruction (Count)
system.cpu.commit.commitEligibleSamples          4072                       # number cycles where commit BW limit reached (Cycle)
system.cpu.dcache.demandHits::cpu.data          14622                       # number of demand (read+write) hits (Count)
system.cpu.dcache.demandHits::total             14622                       # number of demand (read+write) hits (Count)
system.cpu.dcache.overallHits::cpu.data         14622                       # number of overall hits (Count)
system.cpu.dcache.overallHits::total            14622                       # number of overall hits (Count)
system.cpu.dcache.demandMisses::cpu.data         2798                       # number of demand (read+write) misses (Count)
system.cpu.dcache.demandMisses::total            2798                       # number of demand (read+write) misses (Count)
system.cpu.dcache.overallMisses::cpu.data         2798                       # number of overall misses (Count)
system.cpu.dcache.overallMisses::total           2798                       # number of overall misses (Count)
system.cpu.dcache.demandMissLatency::cpu.data    161806497                       # number of demand (read+write) miss ticks (Tick)
system.cpu.dcache.demandMissLatency::total    161806497                       # number of demand (read+write) miss ticks (Tick)
system.cpu.dcache.overallMissLatency::cpu.data    161806497                       # number of overall miss ticks (Tick)
system.cpu.dcache.overallMissLatency::total    161806497                       # number of overall miss ticks (Tick)
system.cpu.dcache.demandAccesses::cpu.data        17420                       # number of demand (read+write) accesses (Count)
system.cpu.dcache.demandAccesses::total         17420                       # number of demand (read+write) accesses (Count)
system.cpu.dcache.overallAccesses::cpu.data        17420                       # number of overall (read+write) accesses (Count)
system.cpu.dcache.overallAccesses::total        17420                       # number of overall (read+write) accesses (Count)
system.cpu.dcache.demandMissRate::cpu.data     0.160620                       # miss rate for demand accesses (Ratio)
system.cpu.dcache.demandMissRate::total      0.160620                       # miss rate for demand accesses (Ratio)
system.cpu.dcache.overallMissRate::cpu.data     0.160620                       # miss rate for overall accesses (Ratio)
system.cpu.dcache.overallMissRate::total     0.160620                       # miss rate for overall accesses (Ratio)
system.cpu.dcache.demandAvgMissLatency::cpu.data 57829.341315                       # average overall miss latency in ticks ((Tick/Count))
system.cpu.dcache.demandAvgMissLatency::total 57829.341315                       # average overall miss latency in ticks ((Tick/Count))
system.cpu.dcache.overallAvgMissLatency::cpu.data 57829.341315                       # average overall miss latency ((Tick/Count))
system.cpu.dcache.overallAvgMissLatency::total 57829.341315                       # average overall miss latency ((Tick/Count))
system.cpu.dcache.blockedCycles::no_mshrs        40190                       # number of cycles access was blocked (Cycle)
system.cpu.dcache.blockedCycles::no_targets            0                       # number of cycles access was blocked (Cycle)
system.cpu.dcache.blockedCauses::no_mshrs         1117                       # number of times access was blocked (Count)
system.cpu.dcache.blockedCauses::no_targets            0                       # number of times access was blocked (Count)
system.cpu.dcache.avgBlocked::no_mshrs      35.980304                       # average number of cycles each access was blocked ((Cycle/Count))
system.cpu.dcache.avgBlocked::no_targets          nan                       # average number of cycles each access was blocked ((Cycle/Count))
system.cpu.dcache.writebacks::writebacks          343                       # number of writebacks (Count)
system.cpu.dcache.writebacks::total               343                       # number of writebacks (Count)
system.cpu.dcache.demandMshrHits::cpu.data         1255                       # number of demand (read+write) MSHR hits (Count)
system.cpu.dcache.demandMshrHits::total          1255                       # number of demand (read+write) MSHR hits (Count)
system.cpu.dcache.overallMshrHits::cpu.data         1255                       # number of overall MSHR hits (Count)
system.cpu.dcache.overallMshrHits::total         1255                       # number of overall MSHR hits (Count)
system.cpu.dcache.demandMshrMisses::cpu.data         1543                       # number of demand (read+write) MSHR misses (Count)
system.cpu.dcache.demandMshrMisses::total         1543                       # number of demand (read+write) MSHR misses (Count)
system.cpu.dcache.overallMshrMisses::cpu.data         1543                       # number of overall MSHR misses (Count)
system.cpu.dcache.overallMshrMisses::total         1543                       # number of overall MSHR misses (Count)
system.cpu.dcache.demandMshrMissLatency::cpu.data     99546000                       # number of demand (read+write) MSHR miss ticks (Tick)
system.cpu.dcache.demandMshrMissLatency::total     99546000                       # number of demand (read+write) MSHR miss ticks (Tick)
system.cpu.dcache.overallMshrMissLatency::cpu.data     99546000                       # number of overall MSHR miss ticks (Tick)
system.cpu.dcache.overallMshrMissLatency::total     99546000                       # number of overall MSHR miss ticks (Tick)
system.cpu.dcache.demandMshrMissRate::cpu.data     0.088576                       # mshr miss ratio for demand accesses (Ratio)
system.cpu.dcache.demandMshrMissRate::total     0.088576                       # mshr miss ratio for demand accesses (Ratio)
system.cpu.dcache.overallMshrMissRate::cpu.data     0.088576                       # mshr miss ratio for overall accesses (Ratio)
system.cpu.dcache.overallMshrMissRate::total     0.088576                       # mshr miss ratio for overall accesses (Ratio)
system.cpu.dcache.demandAvgMshrMissLatency::cpu.data 64514.581983                       # average overall mshr miss latency ((Tick/Count))
system.cpu.dcache.demandAvgMshrMissLatency::total 64514.581983                       # average overall mshr miss latency ((Tick/Count))
system.cpu.dcache.overallAvgMshrMissLatency::cpu.data 64514.581983                       # average overall mshr miss latency ((Tick/Count))
system.cpu.dcache.overallAvgMshrMissLatency::total 64514.581983                       # average overall mshr miss latency ((Tick/Count))
system.cpu.dcache.replacements                   1541                       # number of replacements (Count)
system.cpu.dcache.ReadReq.hits::cpu.data        10333                       # number of ReadReq hits (Count)
system.cpu.dcache.ReadReq.hits::total           10333                       # number of ReadReq hits (Count)
system.cpu.dcache.ReadReq.misses::cpu.data         2762                       # number of ReadReq misses (Count)
system.cpu.dcache.ReadReq.misses::total          2762                       # number of ReadReq misses (Count)
system.cpu.dcache.ReadReq.missLatency::cpu.data    161406500                       # number of ReadReq miss ticks (Tick)
system.cpu.dcache.ReadReq.missLatency::total    161406500                       # number of ReadReq miss ticks (Tick)
system.cpu.dcache.ReadReq.accesses::cpu.data        13095                       # number of ReadReq accesses(hits+misses) (Count)
system.cpu.dcache.ReadReq.accesses::total        13095                       # number of ReadReq accesses(hits+misses) (Count)
system.cpu.dcache.ReadReq.missRate::cpu.data     0.210920                       # miss rate for ReadReq accesses (Ratio)
system.cpu.dcache.ReadReq.missRate::total     0.210920                       # miss rate for ReadReq accesses (Ratio)
system.cpu.dcache.ReadReq.avgMissLatency::cpu.data 58438.269370                       # average ReadReq miss latency ((Tick/Count))
system.cpu.dcache.ReadReq.avgMissLatency::total 58438.269370                       # average ReadReq miss latency ((Tick/Count))
system.cpu.dcache.ReadReq.mshrHits::cpu.data         1224                       # number of ReadReq MSHR hits (Count)
system.cpu.dcache.ReadReq.mshrHits::total         1224                       # number of ReadReq MSHR hits (Count)
system.cpu.dcache.ReadReq.mshrMisses::cpu.data         1538                       # number of ReadReq MSHR misses (Count)
system.cpu.dcache.ReadReq.mshrMisses::total         1538                       # number of ReadReq MSHR misses (Count)
system.cpu.dcache.ReadReq.mshrMissLatency::cpu.data     99484000                       # number of ReadReq MSHR miss ticks (Tick)
system.cpu.dcache.ReadReq.mshrMissLatency::total     99484000                       # number of ReadReq MSHR miss ticks (Tick)
system.cpu.dcache.ReadReq.mshrMissRate::cpu.data     0.117449                       # mshr miss rate for ReadReq accesses (Ratio)
system.cpu.dcache.ReadReq.mshrMissRate::total     0.117449                       # mshr miss rate for ReadReq accesses (Ratio)
system.cpu.dcache.ReadReq.avgMshrMissLatency::cpu.data 64684.005202                       # average ReadReq mshr miss latency ((Tick/Count))
system.cpu.dcache.ReadReq.avgMshrMissLatency::total 64684.005202                       # average ReadReq mshr miss latency ((Tick/Count))
system.cpu.dcache.WriteReq.hits::cpu.data         4289                       # number of WriteReq hits (Count)
system.cpu.dcache.WriteReq.hits::total           4289                       # number of WriteReq hits (Count)
system.cpu.dcache.WriteReq.misses::cpu.data           36                       # number of WriteReq misses (Count)
system.cpu.dcache.WriteReq.misses::total           36                       # number of WriteReq misses (Count)
system.cpu.dcache.WriteReq.missLatency::cpu.data       399997                       # number of WriteReq miss ticks (Tick)
system.cpu.dcache.WriteReq.missLatency::total       399997                       # number of WriteReq miss ticks (Tick)
system.cpu.dcache.WriteReq.accesses::cpu.data         4325                       # number of WriteReq accesses(hits+misses) (Count)
system.cpu.dcache.WriteReq.accesses::total         4325                       # number of WriteReq accesses(hits+misses) (Count)
system.cpu.dcache.WriteReq.missRate::cpu.data     0.008324                       # miss rate for WriteReq accesses (Ratio)
system.cpu.dcache.WriteReq.missRate::total     0.008324                       # miss rate for WriteReq accesses (Ratio)
system.cpu.dcache.WriteReq.avgMissLatency::cpu.data 11111.027778                       # average WriteReq miss latency ((Tick/Count))
system.cpu.dcache.WriteReq.avgMissLatency::total 11111.027778                       # average WriteReq miss latency ((Tick/Count))
system.cpu.dcache.WriteReq.mshrHits::cpu.data           31                       # number of WriteReq MSHR hits (Count)
system.cpu.dcache.WriteReq.mshrHits::total           31                       # number of WriteReq MSHR hits (Count)
system.cpu.dcache.WriteReq.mshrMisses::cpu.data            5                       # number of WriteReq MSHR misses (Count)
system.cpu.dcache.WriteReq.mshrMisses::total            5                       # number of WriteReq MSHR misses (Count)
system.cpu.dcache.WriteReq.mshrMissLatency::cpu.data        62000                       # number of WriteReq MSHR miss ticks (Tick)
system.cpu.dcache.WriteReq.mshrMissLatency::total        62000                       # number of WriteReq MSHR miss ticks (Tick)
system.cpu.dcache.WriteReq.mshrMissRate::cpu.data     0.001156                       # mshr miss rate for WriteReq accesses (Ratio)
system.cpu.dcache.WriteReq.mshrMissRate::total     0.001156                       # mshr miss rate for WriteReq accesses (Ratio)
system.cpu.dcache.WriteReq.avgMshrMissLatency::cpu.data        12400                       # average WriteReq mshr miss latency ((Tick/Count))
system.cpu.dcache.WriteReq.avgMshrMissLatency::total        12400                       # average WriteReq mshr miss latency ((Tick/Count))
system.cpu.dcache.power_state.pwrStateResidencyTicks::UNDEFINED   1031314000                       # Cumulative time (in ticks) in various power states (Tick)
system.cpu.dcache.tags.tagsInUse                 1024                       # Average ticks per tags in use ((Tick/Count))
system.cpu.dcache.tags.totalRefs                55556                       # Total number of references to valid blocks. (Count)
system.cpu.dcache.tags.sampledRefs               1541                       # Sample count of references to valid blocks. (Count)
system.cpu.dcache.tags.avgRefs              36.051914                       # Average number of references to valid blocks. ((Count/Count))
system.cpu.dcache.tags.warmupTick                   0                       # The tick when the warmup percentage was hit. (Tick)
system.cpu.dcache.tags.occupancies::cpu.data         1024                       # Average occupied blocks per tick, per requestor ((Count/Tick))
system.cpu.dcache.tags.avgOccs::cpu.data            1                       # Average percentage of cache occupancy ((Ratio/Tick))
system.cpu.dcache.tags.avgOccs::total               1                       # Average percentage of cache occupancy ((Ratio/Tick))
system.cpu.dcache.tags.occupanciesTaskId::1024         1024                       # Occupied blocks per task id (Count)
system.cpu.dcache.tags.ageTaskId_1024::0          435                       # Occupied blocks per task id, per block age (Count)
system.cpu.dcache.tags.ageTaskId_1024::1          586                       # Occupied blocks per task id, per block age (Count)
system.cpu.dcache.tags.ageTaskId_1024::2            3                       # Occupied blocks per task id, per block age (Count)
system.cpu.dcache.tags.ratioOccsTaskId::1024            1                       # Ratio of occupied blocks and all blocks, per task id (Ratio)
system.cpu.dcache.tags.tagAccesses              71221                       # Number of tag accesses (Count)
system.cpu.dcache.tags.dataAccesses             71221                       # Number of data accesses (Count)
system.cpu.dcache.tags.power_state.pwrStateResidencyTicks::UNDEFINED   1031314000                       # Cumulative time (in ticks) in various power states (Tick)
system.cpu.decode.idleCycles                     9070                       # Number of cycles decode is idle (Cycle)
system.cpu.decode.blockedCycles                 45128                       # Number of cycles decode is blocked (Cycle)
system.cpu.decode.runCycles                     11280                       # Number of cycles decode is running (Cycle)
system.cpu.decode.unblockCycles                  2265                       # Number of cycles decode is unblocking (Cycle)
system.cpu.decode.squashCycles                    332                       # Number of cycles decode is squashing (Cycle)
system.cpu.decode.branchResolved                 4815                       # Number of times decode resolved a branch (Count)
system.cpu.decode.branchMispred                     5                       # Number of times decode detected a branch misprediction (Count)
system.cpu.decode.decodedInsts                  83698                       # Number of instructions handled by decode (Count)
system.cpu.decode.squashedInsts                     7                       # Number of squashed instructions handled by decode (Count)
system.cpu.fetch.icacheStallCycles              11329                       # Number of cycles fetch is stalled on an Icache miss (Cycle)
system.cpu.fetch.insts                          78830                       # Number of instructions fetch has processed (Count)
system.cpu.fetch.branches                        5598                       # Number of branches that fetch encountered (Count)
system.cpu.fetch.predictedBranches               5060                       # Number of branches that fetch has predicted taken (Count)
system.cpu.fetch.cycles                         56409                       # Number of cycles fetch has run and was not squashing or blocked (Cycle)
system.cpu.fetch.squashCycles                     674                       # Number of cycles fetch has spent squashing (Cycle)
system.cpu.fetch.cacheLines                     10287                       # Number of cache lines fetched (Count)
system.cpu.fetch.icacheSquashes                    36                       # Number of outstanding Icache misses that were squashed (Count)
system.cpu.fetch.nisnDist::samples              68075                       # Number of instructions fetched each cycle (Total) (Count)
system.cpu.fetch.nisnDist::mean              1.307954                       # Number of instructions fetched each cycle (Total) (Count)
system.cpu.fetch.nisnDist::stdev             2.697650                       # Number of instructions fetched each cycle (Total) (Count)
system.cpu.fetch.nisnDist::underflows               0      0.00%      0.00% # Number of instructions fetched each cycle (Total) (Count)
system.cpu.fetch.nisnDist::0                    52002     76.39%     76.39% # Number of instructions fetched each cycle (Total) (Count)
system.cpu.fetch.nisnDist::1                     1320      1.94%     78.33% # Number of instructions fetched each cycle (Total) (Count)
system.cpu.fetch.nisnDist::2                     3258      4.79%     83.11% # Number of instructions fetched each cycle (Total) (Count)
system.cpu.fetch.nisnDist::3                      777      1.14%     84.26% # Number of instructions fetched each cycle (Total) (Count)
system.cpu.fetch.nisnDist::4                      321      0.47%     84.73% # Number of instructions fetched each cycle (Total) (Count)
system.cpu.fetch.nisnDist::5                      381      0.56%     85.29% # Number of instructions fetched each cycle (Total) (Count)
system.cpu.fetch.nisnDist::6                      750      1.10%     86.39% # Number of instructions fetched each cycle (Total) (Count)
system.cpu.fetch.nisnDist::7                     2945      4.33%     90.71% # Number of instructions fetched each cycle (Total) (Count)
system.cpu.fetch.nisnDist::8                     6321      9.29%    100.00% # Number of instructions fetched each cycle (Total) (Count)
system.cpu.fetch.nisnDist::overflows                0      0.00%    100.00% # Number of instructions fetched each cycle (Total) (Count)
system.cpu.fetch.nisnDist::min_value                0                       # Number of instructions fetched each cycle (Total) (Count)
system.cpu.fetch.nisnDist::max_value                8                       # Number of instructions fetched each cycle (Total) (Count)
system.cpu.fetch.nisnDist::total                68075                       # Number of instructions fetched each cycle (Total) (Count)
system.cpu.fetch.branchRate                  0.078104                       # Number of branch fetches per cycle (Ratio)
system.cpu.fetch.rate                        1.099841                       # Number of inst fetches per cycle ((Count/Cycle))
system.cpu.icache.demandHits::cpu.inst          10247                       # number of demand (read+write) hits (Count)
system.cpu.icache.demandHits::total             10247                       # number of demand (read+write) hits (Count)
system.cpu.icache.overallHits::cpu.inst         10247                       # number of overall hits (Count)
system.cpu.icache.overallHits::total            10247                       # number of overall hits (Count)
system.cpu.icache.demandMisses::cpu.inst           40                       # number of demand (read+write) misses (Count)
system.cpu.icache.demandMisses::total              40                       # number of demand (read+write) misses (Count)
system.cpu.icache.overallMisses::cpu.inst           40                       # number of overall misses (Count)
system.cpu.icache.overallMisses::total             40                       # number of overall misses (Count)
system.cpu.icache.demandMissLatency::cpu.inst      3021500                       # number of demand (read+write) miss ticks (Tick)
system.cpu.icache.demandMissLatency::total      3021500                       # number of demand (read+write) miss ticks (Tick)
system.cpu.icache.overallMissLatency::cpu.inst      3021500                       # number of overall miss ticks (Tick)
system.cpu.icache.overallMissLatency::total      3021500                       # number of overall miss ticks (Tick)
system.cpu.icache.demandAccesses::cpu.inst        10287                       # number of demand (read+write) accesses (Count)
system.cpu.icache.demandAccesses::total         10287                       # number of demand (read+write) accesses (Count)
system.cpu.icache.overallAccesses::cpu.inst        10287                       # number of overall (read+write) accesses (Count)
system.cpu.icache.overallAccesses::total        10287                       # number of overall (read+write) accesses (Count)
system.cpu.icache.demandMissRate::cpu.inst     0.003888                       # miss rate for demand accesses (Ratio)
system.cpu.icache.demandMissRate::total      0.003888                       # miss rate for demand accesses (Ratio)
system.cpu.icache.overallMissRate::cpu.inst     0.003888                       # miss rate for overall accesses (Ratio)
system.cpu.icache.overallMissRate::total     0.003888                       # miss rate for overall accesses (Ratio)
system.cpu.icache.demandAvgMissLatency::cpu.inst 75537.500000                       # average overall miss latency in ticks ((Tick/Count))
system.cpu.icache.demandAvgMissLatency::total 75537.500000                       # average overall miss latency in ticks ((Tick/Count))
system.cpu.icache.overallAvgMissLatency::cpu.inst 75537.500000                       # average overall miss latency ((Tick/Count))
system.cpu.icache.overallAvgMissLatency::total 75537.500000                       # average overall miss latency ((Tick/Count))
system.cpu.icache.blockedCycles::no_mshrs            0                       # number of cycles access was blocked (Cycle)
system.cpu.icache.blockedCycles::no_targets            0                       # number of cycles access was blocked (Cycle)
system.cpu.icache.blockedCauses::no_mshrs            0                       # number of times access was blocked (Count)
system.cpu.icache.blockedCauses::no_targets            0                       # number of times access was blocked (Count)
system.cpu.icache.avgBlocked::no_mshrs            nan                       # average number of cycles each access was blocked ((Cycle/Count))
system.cpu.icache.avgBlocked::no_targets          nan                       # average number of cycles each access was blocked ((Cycle/Count))
system.cpu.icache.writebacks::writebacks           34                       # number of writebacks (Count)
system.cpu.icache.writebacks::total                34                       # number of writebacks (Count)
system.cpu.icache.demandMshrHits::cpu.inst            7                       # number of demand (read+write) MSHR hits (Count)
system.cpu.icache.demandMshrHits::total             7                       # number of demand (read+write) MSHR hits (Count)
system.cpu.icache.overallMshrHits::cpu.inst            7                       # number of overall MSHR hits (Count)
system.cpu.icache.overallMshrHits::total            7                       # number of overall MSHR hits (Count)
system.cpu.icache.demandMshrMisses::cpu.inst           33                       # number of demand (read+write) MSHR misses (Count)
system.cpu.icache.demandMshrMisses::total           33                       # number of demand (read+write) MSHR misses (Count)
system.cpu.icache.overallMshrMisses::cpu.inst           33                       # number of overall MSHR misses (Count)
system.cpu.icache.overallMshrMisses::total           33                       # number of overall MSHR misses (Count)
system.cpu.icache.demandMshrMissLatency::cpu.inst      2736500                       # number of demand (read+write) MSHR miss ticks (Tick)
system.cpu.icache.demandMshrMissLatency::total      2736500                       # number of demand (read+write) MSHR miss ticks (Tick)
system.cpu.icache.overallMshrMissLatency::cpu.inst      2736500                       # number of overall MSHR miss ticks (Tick)
system.cpu.icache.overallMshrMissLatency::total      2736500                       # number of overall MSHR miss ticks (Tick)
system.cpu.icache.demandMshrMissRate::cpu.inst     0.003208                       # mshr miss ratio for demand accesses (Ratio)
system.cpu.icache.demandMshrMissRate::total     0.003208                       # mshr miss ratio for demand accesses (Ratio)
system.cpu.icache.overallMshrMissRate::cpu.inst     0.003208                       # mshr miss ratio for overall accesses (Ratio)
system.cpu.icache.overallMshrMissRate::total     0.003208                       # mshr miss ratio for overall accesses (Ratio)
system.cpu.icache.demandAvgMshrMissLatency::cpu.inst 82924.242424                       # average overall mshr miss latency ((Tick/Count))
system.cpu.icache.demandAvgMshrMissLatency::total 82924.242424                       # average overall mshr miss latency ((Tick/Count))
system.cpu.icache.overallAvgMshrMissLatency::cpu.inst 82924.242424                       # average overall mshr miss latency ((Tick/Count))
system.cpu.icache.overallAvgMshrMissLatency::total 82924.242424                       # average overall mshr miss latency ((Tick/Count))
system.cpu.icache.replacements                     34                       # number of replacements (Count)
system.cpu.icache.ReadReq.hits::cpu.inst        10247                       # number of ReadReq hits (Count)
system.cpu.icache.ReadReq.hits::total           10247                       # number of ReadReq hits (Count)
system.cpu.icache.ReadReq.misses::cpu.inst           40                       # number of ReadReq misses (Count)
system.cpu.icache.ReadReq.misses::total            40                       # number of ReadReq misses (Count)
system.cpu.icache.ReadReq.missLatency::cpu.inst      3021500                       # number of ReadReq miss ticks (Tick)
system.cpu.icache.ReadReq.missLatency::total      3021500                       # number of ReadReq miss ticks (Tick)
system.cpu.icache.ReadReq.accesses::cpu.inst        10287                       # number of ReadReq accesses(hits+misses) (Count)
system.cpu.icache.ReadReq.accesses::total        10287                       # number of ReadReq accesses(hits+misses) (Count)
system.cpu.icache.ReadReq.missRate::cpu.inst     0.003888                       # miss rate for ReadReq accesses (Ratio)
system.cpu.icache.ReadReq.missRate::total     0.003888                       # miss rate for ReadReq accesses (Ratio)
system.cpu.icache.ReadReq.avgMissLatency::cpu.inst 75537.500000                       # average ReadReq miss latency ((Tick/Count))
system.cpu.icache.ReadReq.avgMissLatency::total 75537.500000                       # average ReadReq miss latency ((Tick/Count))
system.cpu.icache.ReadReq.mshrHits::cpu.inst            7                       # number of ReadReq MSHR hits (Count)
system.cpu.icache.ReadReq.mshrHits::total            7                       # number of ReadReq MSHR hits (Count)
system.cpu.icache.ReadReq.mshrMisses::cpu.inst           33                       # number of ReadReq MSHR misses (Count)
system.cpu.icache.ReadReq.mshrMisses::total           33                       # number of ReadReq MSHR misses (Count)
system.cpu.icache.ReadReq.mshrMissLatency::cpu.inst      2736500                       # number of ReadReq MSHR miss ticks (Tick)
system.cpu.icache.ReadReq.mshrMissLatency::total      2736500                       # number of ReadReq MSHR miss ticks (Tick)
system.cpu.icache.ReadReq.mshrMissRate::cpu.inst     0.003208                       # mshr miss rate for ReadReq accesses (Ratio)
system.cpu.icache.ReadReq.mshrMissRate::total     0.003208                       # mshr miss rate for ReadReq accesses (Ratio)
system.cpu.icache.ReadReq.avgMshrMissLatency::cpu.inst 82924.242424                       # average ReadReq mshr miss latency ((Tick/Count))
system.cpu.icache.ReadReq.avgMshrMissLatency::total 82924.242424                       # average ReadReq mshr miss latency ((Tick/Count))
system.cpu.icache.power_state.pwrStateResidencyTicks::UNDEFINED   1031314000                       # Cumulative time (in ticks) in various power states (Tick)
system.cpu.icache.tags.tagsInUse                  256                       # Average ticks per tags in use ((Tick/Count))
system.cpu.icache.tags.totalRefs                  321                       # Total number of references to valid blocks. (Count)
system.cpu.icache.tags.sampledRefs                 34                       # Sample count of references to valid blocks. (Count)
system.cpu.icache.tags.avgRefs               9.441176                       # Average number of references to valid blocks. ((Count/Count))
system.cpu.icache.tags.warmupTick                   0                       # The tick when the warmup percentage was hit. (Tick)
system.cpu.icache.tags.occupancies::cpu.inst          256                       # Average occupied blocks per tick, per requestor ((Count/Tick))
system.cpu.icache.tags.avgOccs::cpu.inst            1                       # Average percentage of cache occupancy ((Ratio/Tick))
system.cpu.icache.tags.avgOccs::total               1                       # Average percentage of cache occupancy ((Ratio/Tick))
system.cpu.icache.tags.occupanciesTaskId::1024          256                       # Occupied blocks per task id (Count)
system.cpu.icache.tags.ageTaskId_1024::0           20                       # Occupied blocks per task id, per block age (Count)
system.cpu.icache.tags.ageTaskId_1024::1          191                       # Occupied blocks per task id, per block age (Count)
system.cpu.icache.tags.ageTaskId_1024::2           45                       # Occupied blocks per task id, per block age (Count)
system.cpu.icache.tags.ratioOccsTaskId::1024            1                       # Ratio of occupied blocks and all blocks, per task id (Ratio)
system.cpu.icache.tags.tagAccesses              41182                       # Number of tag accesses (Count)
system.cpu.icache.tags.dataAccesses             41182                       # Number of data accesses (Count)
system.cpu.icache.tags.power_state.pwrStateResidencyTicks::UNDEFINED   1031314000                       # Cumulative time (in ticks) in various power states (Tick)
system.cpu.iew.idleCycles                           0                       # Number of cycles IEW is idle (Cycle)
system.cpu.iew.squashCycles                       332                       # Number of cycles IEW is squashing (Cycle)
system.cpu.iew.blockCycles                      34988                       # Number of cycles IEW is blocking (Cycle)
system.cpu.iew.unblockCycles                      888                       # Number of cycles IEW is unblocking (Cycle)
system.cpu.iew.dispatchedInsts                  81130                       # Number of instructions dispatched to IQ (Count)
system.cpu.iew.dispSquashedInsts                  319                       # Number of squashed instructions skipped by dispatch (Count)
system.cpu.iew.dispLoadInsts                    13705                       # Number of dispatched load instructions (Count)
system.cpu.iew.dispStoreInsts                    4514                       # Number of dispatched store instructions (Count)
system.cpu.iew.dispNonSpecInsts                     2                       # Number of dispatched non-speculative instructions (Count)
system.cpu.iew.iqFullEvents                       327                       # Number of times the IQ has become full, causing a stall (Count)
system.cpu.iew.lsqFullEvents                      343                       # Number of times the LSQ has become full, causing a stall (Count)
system.cpu.iew.memOrderViolationEvents              7                       # Number of memory order violations (Count)
system.cpu.iew.predictedTakenIncorrect            269                       # Number of branches that were predicted taken incorrectly (Count)
system.cpu.iew.predictedNotTakenIncorrect           36                       # Number of branches that were predicted not taken incorrectly (Count)
system.cpu.iew.branchMispredicts                  305                       # Number of branch mispredicts detected at execute (Count)
system.cpu.iew.instsToCommit                    77057                       # Cumulative count of insts sent to commit (Count)
system.cpu.iew.writebackCount                   76792                       # Cumulative count of insts written-back (Count)
system.cpu.iew.producerInst                     56263                       # Number of instructions producing a value (Count)
system.cpu.iew.consumerInst                     74497                       # Number of instructions consuming a value (Count)
system.cpu.iew.wbRate                        1.071407                       # Insts written-back per cycle ((Count/Cycle))
system.cpu.iew.wbFanout                      0.755238                       # Average fanout of values written-back ((Count/Count))
system.cpu.lsq0.forwLoads                           0                       # Number of loads that had data forwarded from stores (Count)
system.cpu.lsq0.squashedLoads                    1083                       # Number of loads squashed (Count)
system.cpu.lsq0.ignoredResponses                    0                       # Number of memory responses ignored because the instruction is squashed (Count)
system.cpu.lsq0.memOrderViolation                   7                       # Number of memory ordering violations (Count)
system.cpu.lsq0.squashedStores                    189                       # Number of stores squashed (Count)
system.cpu.lsq0.rescheduledLoads                    2                       # Number of loads that were rescheduled (Count)
system.cpu.lsq0.blockedByCache                   1059                       # Number of times an access to memory failed due to the cache being blocked (Count)
system.cpu.lsq0.loadToUse::samples              12619                       # Distribution of cycle latency between the first time a load is issued and its completion (Unspecified)
system.cpu.lsq0.loadToUse::mean             35.277677                       # Distribution of cycle latency between the first time a load is issued and its completion (Unspecified)
system.cpu.lsq0.loadToUse::stdev            75.257332                       # Distribution of cycle latency between the first time a load is issued and its completion (Unspecified)
system.cpu.lsq0.loadToUse::0-9                   9693     76.81%     76.81% # Distribution of cycle latency between the first time a load is issued and its completion (Unspecified)
system.cpu.lsq0.loadToUse::10-19                  129      1.02%     77.84% # Distribution of cycle latency between the first time a load is issued and its completion (Unspecified)
system.cpu.lsq0.loadToUse::20-29                  483      3.83%     81.66% # Distribution of cycle latency between the first time a load is issued and its completion (Unspecified)
system.cpu.lsq0.loadToUse::30-39                   74      0.59%     82.25% # Distribution of cycle latency between the first time a load is issued and its completion (Unspecified)
system.cpu.lsq0.loadToUse::40-49                   51      0.40%     82.65% # Distribution of cycle latency between the first time a load is issued and its completion (Unspecified)
system.cpu.lsq0.loadToUse::50-59                   35      0.28%     82.93% # Distribution of cycle latency between the first time a load is issued and its completion (Unspecified)
system.cpu.lsq0.loadToUse::60-69                   58      0.46%     83.39% # Distribution of cycle latency between the first time a load is issued and its completion (Unspecified)
system.cpu.lsq0.loadToUse::70-79                   35      0.28%     83.67% # Distribution of cycle latency between the first time a load is issued and its completion (Unspecified)
system.cpu.lsq0.loadToUse::80-89                   24      0.19%     83.86% # Distribution of cycle latency between the first time a load is issued and its completion (Unspecified)
system.cpu.lsq0.loadToUse::90-99                   30      0.24%     84.10% # Distribution of cycle latency between the first time a load is issued and its completion (Unspecified)
system.cpu.lsq0.loadToUse::100-109                 37      0.29%     84.39% # Distribution of cycle latency between the first time a load is issued and its completion (Unspecified)
system.cpu.lsq0.loadToUse::110-119                 14      0.11%     84.50% # Distribution of cycle latency between the first time a load is issued and its completion (Unspecified)
system.cpu.lsq0.loadToUse::120-129                  5      0.04%     84.54% # Distribution of cycle latency between the first time a load is issued and its completion (Unspecified)
system.cpu.lsq0.loadToUse::130-139                 61      0.48%     85.02% # Distribution of cycle latency between the first time a load is issued and its completion (Unspecified)
system.cpu.lsq0.loadToUse::140-149                559      4.43%     89.45% # Distribution of cycle latency between the first time a load is issued and its completion (Unspecified)
system.cpu.lsq0.loadToUse::150-159                301      2.39%     91.84% # Distribution of cycle latency between the first time a load is issued and its completion (Unspecified)
system.cpu.lsq0.loadToUse::160-169                 98      0.78%     92.61% # Distribution of cycle latency between the first time a load is issued and its completion (Unspecified)
system.cpu.lsq0.loadToUse::170-179                115      0.91%     93.53% # Distribution of cycle latency between the first time a load is issued and its completion (Unspecified)
system.cpu.lsq0.loadToUse::180-189                112      0.89%     94.41% # Distribution of cycle latency between the first time a load is issued and its completion (Unspecified)
system.cpu.lsq0.loadToUse::190-199                104      0.82%     95.24% # Distribution of cycle latency between the first time a load is issued and its completion (Unspecified)
system.cpu.lsq0.loadToUse::200-209                105      0.83%     96.07% # Distribution of cycle latency between the first time a load is issued and its completion (Unspecified)
system.cpu.lsq0.loadToUse::210-219                 90      0.71%     96.78% # Distribution of cycle latency between the first time a load is issued and its completion (Unspecified)
system.cpu.lsq0.loadToUse::220-229                 49      0.39%     97.17% # Distribution of cycle latency between the first time a load is issued and its completion (Unspecified)
system.cpu.lsq0.loadToUse::230-239                 29      0.23%     97.40% # Distribution of cycle latency between the first time a load is issued and its completion (Unspecified)
system.cpu.lsq0.loadToUse::240-249                 84      0.67%     98.07% # Distribution of cycle latency between the first time a load is issued and its completion (Unspecified)
system.cpu.lsq0.loadToUse::250-259                 64      0.51%     98.57% # Distribution of cycle latency between the first time a load is issued and its completion (Unspecified)
system.cpu.lsq0.loadToUse::260-269                 30      0.24%     98.81% # Distribution of cycle latency between the first time a load is issued and its completion (Unspecified)
system.cpu.lsq0.loadToUse::270-279                 17      0.13%     98.95% # Distribution of cycle latency between the first time a load is issued and its completion (Unspecified)
system.cpu.lsq0.loadToUse::280-289                 27      0.21%     99.16% # Distribution of cycle latency between the first time a load is issued and its completion (Unspecified)
system.cpu.lsq0.loadToUse::290-299                 12      0.10%     99.26% # Distribution of cycle latency between the first time a load is issued and its completion (Unspecified)
system.cpu.lsq0.loadToUse::overflows               94      0.74%    100.00% # Distribution of cycle latency between the first time a load is issued and its completion (Unspecified)
system.cpu.lsq0.loadToUse::min_value                3                       # Distribution of cycle latency between the first time a load is issued and its completion (Unspecified)
system.cpu.lsq0.loadToUse::max_value              999                       # Distribution of cycle latency between the first time a load is issued and its completion (Unspecified)
system.cpu.lsq0.loadToUse::total                12619                       # Distribution of cycle latency between the first time a load is issued and its completion (Unspecified)
system.cpu.mmu.alignFaults                          0                       # Number of MMU faults due to alignment restrictions (Count)
system.cpu.mmu.prefetchFaults                       0                       # Number of MMU faults due to prefetch (Count)
system.cpu.mmu.domainFaults                         0                       # Number of MMU faults due to domain restrictions (Count)
[...]
system.mem_ctrls.dram.perBankWrBursts::9            2                       # Per bank write bursts (Count)
system.mem_ctrls.dram.perBankWrBursts::10            1                       # Per bank write bursts (Count)
system.mem_ctrls.dram.perBankWrBursts::11            0                       # Per bank write bursts (Count)
system.mem_ctrls.dram.perBankWrBursts::12            4                       # Per bank write bursts (Count)
system.mem_ctrls.dram.perBankWrBursts::13           11                       # Per bank write bursts (Count)
system.mem_ctrls.dram.perBankWrBursts::14            0                       # Per bank write bursts (Count)
system.mem_ctrls.dram.perBankWrBursts::15            1                       # Per bank write bursts (Count)
system.mem_ctrls.dram.totQLat                 4684750                       # Total ticks spent queuing (Tick)
system.mem_ctrls.dram.totBusLat               1595000                       # Total ticks spent in databus transfers (Tick)
system.mem_ctrls.dram.totMemAccLat           10666000                       # Total ticks spent from burst creation until serviced by the DRAM (Tick)
system.mem_ctrls.dram.avgQLat                14685.74                       # Average queueing delay per DRAM burst ((Tick/Count))
system.mem_ctrls.dram.avgBusLat               5000.00                       # Average bus latency per DRAM burst ((Tick/Count))
system.mem_ctrls.dram.avgMemAccLat           33435.74                       # Average memory access latency per DRAM burst ((Tick/Count))
system.mem_ctrls.dram.readRowHits                 193                       # Number of row buffer hits during reads (Count)
system.mem_ctrls.dram.writeRowHits                 27                       # Number of row buffer hits during writes (Count)
system.mem_ctrls.dram.readRowHitRate            60.50                       # Row buffer hit rate for reads (Ratio)
system.mem_ctrls.dram.writeRowHitRate           75.00                       # Row buffer hit rate for writes (Ratio)
system.mem_ctrls.dram.bytesPerActivate::samples          122                       # Bytes accessed per row activation (Byte)
system.mem_ctrls.dram.bytesPerActivate::mean   165.770492                       # Bytes accessed per row activation (Byte)
system.mem_ctrls.dram.bytesPerActivate::gmean   112.717793                       # Bytes accessed per row activation (Byte)
system.mem_ctrls.dram.bytesPerActivate::stdev   195.018320                       # Bytes accessed per row activation (Byte)
system.mem_ctrls.dram.bytesPerActivate::0-127           68     55.74%     55.74% # Bytes accessed per row activation (Byte)
system.mem_ctrls.dram.bytesPerActivate::128-255           31     25.41%     81.15% # Bytes accessed per row activation (Byte)
system.mem_ctrls.dram.bytesPerActivate::256-383            8      6.56%     87.70% # Bytes accessed per row activation (Byte)
system.mem_ctrls.dram.bytesPerActivate::384-511            5      4.10%     91.80% # Bytes accessed per row activation (Byte)
system.mem_ctrls.dram.bytesPerActivate::512-639            4      3.28%     95.08% # Bytes accessed per row activation (Byte)
system.mem_ctrls.dram.bytesPerActivate::640-767            2      1.64%     96.72% # Bytes accessed per row activation (Byte)
system.mem_ctrls.dram.bytesPerActivate::768-895            1      0.82%     97.54% # Bytes accessed per row activation (Byte)
system.mem_ctrls.dram.bytesPerActivate::896-1023            1      0.82%     98.36% # Bytes accessed per row activation (Byte)
system.mem_ctrls.dram.bytesPerActivate::1024-1151            2      1.64%    100.00% # Bytes accessed per row activation (Byte)
system.mem_ctrls.dram.bytesPerActivate::total          122                       # Bytes accessed per row activation (Byte)
system.mem_ctrls.dram.bytesRead                 20416                       # Total bytes read (Byte)
system.mem_ctrls.dram.bytesWritten               2304                       # Total bytes written (Byte)
system.mem_ctrls.dram.avgRdBW             1032.101512                       # Average DRAM read bandwidth in MiBytes/s ((Byte/Second))
system.mem_ctrls.dram.avgWrBW              116.475406                       # Average DRAM write bandwidth in MiBytes/s ((Byte/Second))
system.mem_ctrls.dram.peakBW                 12800.00                       # Theoretical peak bandwidth in MiByte/s ((Byte/Second))
system.mem_ctrls.dram.busUtil                    8.97                       # Data bus utilization in percentage (Ratio)
system.mem_ctrls.dram.busUtilRead                8.06                       # Data bus utilization in percentage for reads (Ratio)
system.mem_ctrls.dram.busUtilWrite               0.91                       # Data bus utilization in percentage for writes (Ratio)
system.mem_ctrls.dram.pageHitRate               61.97                       # Row buffer hit rate, read and write combined (Ratio)
system.mem_ctrls.dram.power_state.pwrStateResidencyTicks::UNDEFINED     19781000                       # Cumulative time (in ticks) in various power states (Tick)
system.mem_ctrls.dram.rank0.actEnergy          464100                       # Energy for activate commands per rank (pJ) (Joule)
system.mem_ctrls.dram.rank0.preEnergy          223905                       # Energy for precharge commands per rank (pJ) (Joule)
system.mem_ctrls.dram.rank0.readEnergy         992460                       # Energy for read commands per rank (pJ) (Joule)
system.mem_ctrls.dram.rank0.writeEnergy         62640                       # Energy for write commands per rank (pJ) (Joule)
system.mem_ctrls.dram.rank0.refreshEnergy 1229280.000000                       # Energy for refresh commands per rank (pJ) (Joule)
system.mem_ctrls.dram.rank0.actBackEnergy      8988330                       # Energy for active background per rank (pJ) (Joule)
system.mem_ctrls.dram.rank0.preBackEnergy        26400                       # Energy for precharge background per rank (pJ) (Joule)
system.mem_ctrls.dram.rank0.actPowerDownEnergy            0                       # Energy for active power-down per rank (pJ) (Joule)
system.mem_ctrls.dram.rank0.prePowerDownEnergy            0                       # Energy for precharge power-down per rank (pJ) (Joule)
system.mem_ctrls.dram.rank0.selfRefreshEnergy            0                       # Energy for self refresh per rank (pJ) (Joule)
system.mem_ctrls.dram.rank0.totalEnergy      11987115                       # Total energy per rank (pJ) (Joule)
system.mem_ctrls.dram.rank0.averagePower   605.991355                       # Core power per rank (mW) (Watt)
system.mem_ctrls.dram.rank0.totalIdleTime            0                       # Total Idle time Per DRAM Rank (Tick)
system.mem_ctrls.dram.rank0.pwrStateTime::IDLE            0                       # Time in different power states (Tick)
system.mem_ctrls.dram.rank0.pwrStateTime::REF       520000                       # Time in different power states (Tick)
system.mem_ctrls.dram.rank0.pwrStateTime::SREF            0                       # Time in different power states (Tick)
system.mem_ctrls.dram.rank0.pwrStateTime::PRE_PDN            0                       # Time in different power states (Tick)
system.mem_ctrls.dram.rank0.pwrStateTime::ACT     19261000                       # Time in different power states (Tick)
system.mem_ctrls.dram.rank0.pwrStateTime::ACT_PDN            0                       # Time in different power states (Tick)
system.mem_ctrls.dram.rank1.actEnergy          499800                       # Energy for activate commands per rank (pJ) (Joule)
system.mem_ctrls.dram.rank1.preEnergy          239085                       # Energy for precharge commands per rank (pJ) (Joule)
system.mem_ctrls.dram.rank1.readEnergy        1285200                       # Energy for read commands per rank (pJ) (Joule)
system.mem_ctrls.dram.rank1.writeEnergy        125280                       # Energy for write commands per rank (pJ) (Joule)
system.mem_ctrls.dram.rank1.refreshEnergy 1229280.000000                       # Energy for refresh commands per rank (pJ) (Joule)
system.mem_ctrls.dram.rank1.actBackEnergy      8667990                       # Energy for active background per rank (pJ) (Joule)
system.mem_ctrls.dram.rank1.preBackEnergy       296160                       # Energy for precharge background per rank (pJ) (Joule)
system.mem_ctrls.dram.rank1.actPowerDownEnergy            0                       # Energy for active power-down per rank (pJ) (Joule)
system.mem_ctrls.dram.rank1.prePowerDownEnergy            0                       # Energy for precharge power-down per rank (pJ) (Joule)
system.mem_ctrls.dram.rank1.selfRefreshEnergy            0                       # Energy for self refresh per rank (pJ) (Joule)
system.mem_ctrls.dram.rank1.totalEnergy      12342795                       # Total energy per rank (pJ) (Joule)
system.mem_ctrls.dram.rank1.averagePower   623.972246                       # Core power per rank (mW) (Watt)
system.mem_ctrls.dram.rank1.totalIdleTime            0                       # Total Idle time Per DRAM Rank (Tick)
system.mem_ctrls.dram.rank1.pwrStateTime::IDLE       715500                       # Time in different power states (Tick)
system.mem_ctrls.dram.rank1.pwrStateTime::REF       520000                       # Time in different power states (Tick)
system.mem_ctrls.dram.rank1.pwrStateTime::SREF            0                       # Time in different power states (Tick)
system.mem_ctrls.dram.rank1.pwrStateTime::PRE_PDN            0                       # Time in different power states (Tick)
system.mem_ctrls.dram.rank1.pwrStateTime::ACT     18545500                       # Time in different power states (Tick)
system.mem_ctrls.dram.rank1.pwrStateTime::ACT_PDN            0                       # Time in different power states (Tick)
system.mem_ctrls.power_state.pwrStateResidencyTicks::UNDEFINED     19781000                       # Cumulative time (in ticks) in various power states (Tick)
system.membus.transDist::ReadResp                 317                       # Transaction distribution (Count)
system.membus.transDist::WritebackDirty            34                       # Transaction distribution (Count)
system.membus.transDist::CleanEvict               290                       # Transaction distribution (Count)
system.membus.transDist::ReadExReq                  6                       # Transaction distribution (Count)
system.membus.transDist::ReadExResp                 6                       # Transaction distribution (Count)
system.membus.transDist::ReadSharedReq            316                       # Transaction distribution (Count)
system.membus.pktCount_system.l2.mem_side_port::system.mem_ctrls.port          969                       # Packet count per connected requestor and responder (Count)
system.membus.pktCount::total                     969                       # Packet count per connected requestor and responder (Count)
system.membus.pktSize_system.l2.mem_side_port::system.mem_ctrls.port        22848                       # Cumulative packet size per connected requestor and responder (Byte)
system.membus.pktSize::total                    22848                       # Cumulative packet size per connected requestor and responder (Byte)
system.membus.snoops                                0                       # Total snoops (Count)
system.membus.snoopTraffic                          0                       # Total snoop traffic (Byte)
system.membus.snoopFanout::samples                322                       # Request fanout histogram (Count)
system.membus.snoopFanout::mean                     0                       # Request fanout histogram (Count)
system.membus.snoopFanout::stdev                    0                       # Request fanout histogram (Count)
system.membus.snoopFanout::underflows               0      0.00%      0.00% # Request fanout histogram (Count)
system.membus.snoopFanout::0                      322    100.00%    100.00% # Request fanout histogram (Count)
system.membus.snoopFanout::1                        0      0.00%    100.00% # Request fanout histogram (Count)
system.membus.snoopFanout::overflows                0      0.00%    100.00% # Request fanout histogram (Count)
system.membus.snoopFanout::min_value                0                       # Request fanout histogram (Count)
system.membus.snoopFanout::max_value                0                       # Request fanout histogram (Count)
system.membus.snoopFanout::total                  322                       # Request fanout histogram (Count)
system.membus.power_state.pwrStateResidencyTicks::UNDEFINED     19781000                       # Cumulative time (in ticks) in various power states (Tick)
system.membus.reqLayer0.occupancy              859000                       # Layer occupancy (ticks) (Tick)
system.membus.reqLayer0.utilization               0.0                       # Layer utilization (Ratio)
system.membus.respLayer1.occupancy            1736000                       # Layer occupancy (ticks) (Tick)
system.membus.respLayer1.utilization              0.1                       # Layer utilization (Ratio)
system.membus.snoop_filter.totRequests            646                       # Total number of requests made to the snoop filter. (Count)
system.membus.snoop_filter.hitSingleRequests          324                       # Number of requests hitting in the snoop filter with a single holder of the requested data. (Count)
system.membus.snoop_filter.hitMultiRequests            0                       # Number of requests hitting in the snoop filter with multiple (>1) holders of the requested data. (Count)
system.membus.snoop_filter.totSnoops                0                       # Total number of snoops made to the snoop filter. (Count)
system.membus.snoop_filter.hitSingleSnoops            0                       # Number of snoops hitting in the snoop filter with a single holder of the requested data. (Count)
system.membus.snoop_filter.hitMultiSnoops            0                       # Number of snoops hitting in the snoop filter with multiple (>1) holders of the requested data. (Count)
system.tol2bus.transDist::ReadResp                527                       # Transaction distribution (Count)
system.tol2bus.transDist::WritebackDirty           55                       # Transaction distribution (Count)
system.tol2bus.transDist::WritebackClean          221                       # Transaction distribution (Count)
system.tol2bus.transDist::CleanEvict              612                       # Transaction distribution (Count)
system.tol2bus.transDist::ReadExReq                21                       # Transaction distribution (Count)
system.tol2bus.transDist::ReadExResp               21                       # Transaction distribution (Count)
system.tol2bus.transDist::ReadCleanReq            222                       # Transaction distribution (Count)
system.tol2bus.transDist::ReadSharedReq           304                       # Transaction distribution (Count)
system.tol2bus.transDist::InvalidateReq             3                       # Transaction distribution (Count)
system.tol2bus.transDist::InvalidateResp            3                       # Transaction distribution (Count)
system.tol2bus.pktCount_system.cpu.icache.mem_side_port::system.l2.cpu_side_port          664                       # Packet count per connected requestor and responder (Count)
system.tol2bus.pktCount_system.cpu.dcache.mem_side_port::system.l2.cpu_side_port          988                       # Packet count per connected requestor and responder (Count)
system.tol2bus.pktCount::total                   1652                       # Packet count per connected requestor and responder (Count)
system.tol2bus.pktSize_system.cpu.icache.mem_side_port::system.l2.cpu_side_port        28288                       # Cumulative packet size per connected requestor and responder (Byte)
system.tol2bus.pktSize_system.cpu.dcache.mem_side_port::system.l2.cpu_side_port        22272                       # Cumulative packet size per connected requestor and responder (Byte)
system.tol2bus.pktSize::total                   50560                       # Cumulative packet size per connected requestor and responder (Byte)
system.tol2bus.snoops                             337                       # Total snoops (Count)
system.tol2bus.snoopTraffic                      2176                       # Total snoop traffic (Byte)
system.tol2bus.snoopFanout::samples               887                       # Request fanout histogram (Count)
system.tol2bus.snoopFanout::mean             0.014656                       # Request fanout histogram (Count)
system.tol2bus.snoopFanout::stdev            0.120240                       # Request fanout histogram (Count)
system.tol2bus.snoopFanout::underflows              0      0.00%      0.00% # Request fanout histogram (Count)
system.tol2bus.snoopFanout::0                     874     98.53%     98.53% # Request fanout histogram (Count)
system.tol2bus.snoopFanout::1                      13      1.47%    100.00% # Request fanout histogram (Count)
system.tol2bus.snoopFanout::2                       0      0.00%    100.00% # Request fanout histogram (Count)
system.tol2bus.snoopFanout::overflows               0      0.00%    100.00% # Request fanout histogram (Count)
system.tol2bus.snoopFanout::min_value               0                       # Request fanout histogram (Count)
system.tol2bus.snoopFanout::max_value               1                       # Request fanout histogram (Count)
system.tol2bus.snoopFanout::total                 887                       # Request fanout histogram (Count)
system.tol2bus.power_state.pwrStateResidencyTicks::UNDEFINED     19781000                       # Cumulative time (in ticks) in various power states (Tick)
system.tol2bus.reqLayer0.occupancy             792500                       # Layer occupancy (ticks) (Tick)
system.tol2bus.reqLayer0.utilization              0.0                       # Layer utilization (Ratio)
system.tol2bus.respLayer0.occupancy            331500                       # Layer occupancy (ticks) (Tick)
system.tol2bus.respLayer0.utilization             0.0                       # Layer utilization (Ratio)
system.tol2bus.respLayer1.occupancy            492000                       # Layer occupancy (ticks) (Tick)
system.tol2bus.respLayer1.utilization             0.0                       # Layer utilization (Ratio)
system.tol2bus.snoop_filter.totRequests          1101                       # Total number of requests made to the snoop filter. (Count)
system.tol2bus.snoop_filter.hitSingleRequests          551                       # Number of requests hitting in the snoop filter with a single holder of the requested data. (Count)
system.tol2bus.snoop_filter.hitMultiRequests            0                       # Number of requests hitting in the snoop filter with multiple (>1) holders of the requested data. (Count)
system.tol2bus.snoop_filter.totSnoops              13                       # Total number of snoops made to the snoop filter. (Count)
system.tol2bus.snoop_filter.hitSingleSnoops           13                       # Number of snoops hitting in the snoop filter with a single holder of the requested data. (Count)
system.tol2bus.snoop_filter.hitMultiSnoops            0                       # Number of snoops hitting in the snoop filter with multiple (>1) holders of the requested data. (Count)
system.voltage_domain.voltage                       1                       # Voltage in Volts (Volt)
system.workload.inst.arm                            0                       # number of arm instructions executed (Count)
system.workload.inst.quiesce                        0                       # number of quiesce instructions executed (Count)

---------- End Simulation Statistics   ----------
