
---------- Begin Simulation Statistics ----------
simSeconds                                   0.000261                       # Number of seconds simulated (Second)
simTicks                                    261419000                       # Number of ticks simulated (Tick)
finalTick                                  1257036000                       # Number of ticks from beginning of simulation (restored from checkpoints and never reset) (Tick)
simFreq                                  1000000000000                       # The number of ticks per simulated second ((Tick/Second))
hostSeconds                                      3.49                       # Real time elapsed on the host (Second)
hostTickRate                                 74863073                       # The number of ticks simulated per host second (ticks/s) ((Tick/Second))
hostMemory                                     680140                       # Number of bytes of host memory used (Byte)
simInsts                                      2402056                       # Number of instructions simulated (Count)
simOps                                        2982043                       # Number of ops (including micro ops) simulated (Count)
hostInstRate                                   687855                       # Simulator instruction rate (inst/s) ((Count/Second))
hostOpRate                                     853937                       # Simulator op (including micro ops) rate (op/s) ((Count/Second))
system.clk_domain.clock                          1000                       # Clock period in ticks (Tick)
system.cpu.numCycles                           522838                       # Number of cpu cycles simulated (Cycle)
system.cpu.numWorkItemsStarted                      0                       # Number of work items this cpu started (Count)
system.cpu.numWorkItemsCompleted                    0                       # Number of work items this cpu completed (Count)
system.cpu.instsAdded                         1064863                       # Number of instructions added to the IQ (excludes non-spec) (Count)
system.cpu.nonSpecInstsAdded                        1                       # Number of non-speculative instructions added to the IQ (Count)
system.cpu.instsIssued                        1065088                       # Number of instructions issued (Count)
system.cpu.squashedInstsIssued                     79                       # Number of squashed instructions issued (Count)
system.cpu.squashedInstsExamined                 9460                       # Number of squashed instructions iterated over during squash; mainly for profiling (Count)
system.cpu.squashedOperandsExamined             12080                       # Number of squashed operands that are examined and possibly removed from graph (Count)
system.cpu.numIssuedDist::samples              514960                       # Number of insts issued each cycle (Count)
system.cpu.numIssuedDist::mean               2.068293                       # Number of insts issued each cycle (Count)
system.cpu.numIssuedDist::stdev              2.797879                       # Number of insts issued each cycle (Count)
system.cpu.numIssuedDist::underflows                0      0.00%      0.00% # Number of insts issued each cycle (Count)
system.cpu.numIssuedDist::0                    293275     56.95%     56.95% # Number of insts issued each cycle (Count)
system.cpu.numIssuedDist::1                     22832      4.43%     61.38% # Number of insts issued each cycle (Count)
system.cpu.numIssuedDist::2                     22532      4.38%     65.76% # Number of insts issued each cycle (Count)
system.cpu.numIssuedDist::3                     18452      3.58%     69.34% # Number of insts issued each cycle (Count)
system.cpu.numIssuedDist::4                     35238      6.84%     76.19% # Number of insts issued each cycle (Count)
system.cpu.numIssuedDist::5                     29684      5.76%     81.95% # Number of insts issued each cycle (Count)
system.cpu.numIssuedDist::6                     33607      6.53%     88.48% # Number of insts issued each cycle (Count)
system.cpu.numIssuedDist::7                     23898      4.64%     93.12% # Number of insts issued each cycle (Count)
system.cpu.numIssuedDist::8                     35442      6.88%    100.00% # Number of insts issued each cycle (Count)
system.cpu.numIssuedDist::overflows                 0      0.00%    100.00% # Number of insts issued each cycle (Count)
system.cpu.numIssuedDist::min_value                 0                       # Number of insts issued each cycle (Count)
system.cpu.numIssuedDist::max_value                 8                       # Number of insts issued each cycle (Count)
system.cpu.numIssuedDist::total                514960                       # Number of insts issued each cycle (Count)
system.cpu.statFuBusy::No_OpClass                   0      0.00%      0.00% # attempts to use FU when none available (Count)
system.cpu.statFuBusy::IntAlu                    5221      7.62%      7.62% # attempts to use FU when none available (Count)
system.cpu.statFuBusy::IntMult                      0      0.00%      7.62% # attempts to use FU when none available (Count)
system.cpu.statFuBusy::IntDiv                       0      0.00%      7.62% # attempts to use FU when none available (Count)
system.cpu.statFuBusy::FloatAdd                     0      0.00%      7.62% # attempts to use FU when none available (Count)
system.cpu.statFuBusy::FloatCmp                     0      0.00%      7.62% # attempts to use FU when none available (Count)
system.cpu.statFuBusy::FloatCvt                     0      0.00%      7.62% # attempts to use FU when none available (Count)
system.cpu.statFuBusy::FloatMult                    0      0.00%      7.62% # attempts to use FU when none available (Count)
system.cpu.statFuBusy::FloatMultAcc                 0      0.00%      7.62% # attempts to use FU when none available (Count)
system.cpu.statFuBusy::FloatDiv                     0      0.00%      7.62% # attempts to use FU when none available (Count)
system.cpu.statFuBusy::FloatMisc                    0      0.00%      7.62% # attempts to use FU when none available (Count)
system.cpu.statFuBusy::FloatSqrt                    0      0.00%      7.62% # attempts to use FU when none available (Count)
system.cpu.statFuBusy::SimdAdd                  17005     24.83%     32.45% # attempts to use FU when none available (Count)
system.cpu.statFuBusy::SimdAddAcc                   0      0.00%     32.45% # attempts to use FU when none available (Count)
system.cpu.statFuBusy::SimdAlu                  23205     33.88%     66.33% # attempts to use FU when none available (Count)
system.cpu.statFuBusy::SimdCmp                      0      0.00%     66.33% # attempts to use FU when none available (Count)
system.cpu.statFuBusy::SimdCvt                      0      0.00%     66.33% # attempts to use FU when none available (Count)
system.cpu.statFuBusy::SimdMisc                   930      1.36%     67.69% # attempts to use FU when none available (Count)
system.cpu.statFuBusy::SimdMult                     0      0.00%     67.69% # attempts to use FU when none available (Count)
system.cpu.statFuBusy::SimdMultAcc                  0      0.00%     67.69% # attempts to use FU when none available (Count)
system.cpu.statFuBusy::SimdShift                    0      0.00%     67.69% # attempts to use FU when none available (Count)
system.cpu.statFuBusy::SimdShiftAcc                 0      0.00%     67.69% # attempts to use FU when none available (Count)
system.cpu.statFuBusy::SimdDiv                      0      0.00%     67.69% # attempts to use FU when none available (Count)
system.cpu.statFuBusy::SimdSqrt                     0      0.00%     67.69% # attempts to use FU when none available (Count)
system.cpu.statFuBusy::SimdFloatAdd                 0      0.00%     67.69% # attempts to use FU when none available (Count)
system.cpu.statFuBusy::SimdFloatAlu                 0      0.00%     67.69% # attempts to use FU when none available (Count)
system.cpu.statFuBusy::SimdFloatCmp                 0      0.00%     67.69% # attempts to use FU when none available (Count)
system.cpu.statFuBusy::SimdFloatCvt                 0      0.00%     67.69% # attempts to use FU when none available (Count)
system.cpu.statFuBusy::SimdFloatDiv                 0      0.00%     67.69% # attempts to use FU when none available (Count)
system.cpu.statFuBusy::SimdFloatMisc                0      0.00%     67.69% # attempts to use FU when none available (Count)
system.cpu.statFuBusy::SimdFloatMult                0      0.00%     67.69% # attempts to use FU when none available (Count)
system.cpu.statFuBusy::SimdFloatMultAcc             0      0.00%     67.69% # attempts to use FU when none available (Count)
system.cpu.statFuBusy::SimdFloatSqrt                0      0.00%     67.69% # attempts to use FU when none available (Count)
system.cpu.statFuBusy::SimdReduceAdd                0      0.00%     67.69% # attempts to use FU when none available (Count)
system.cpu.statFuBusy::SimdReduceAlu                0      0.00%     67.69% # attempts to use FU when none available (Count)
system.cpu.statFuBusy::SimdReduceCmp                0      0.00%     67.69% # attempts to use FU when none available (Count)
system.cpu.statFuBusy::SimdFloatReduceAdd            0      0.00%     67.69% # attempts to use FU when none available (Count)
system.cpu.statFuBusy::SimdFloatReduceCmp            0      0.00%     67.69% # attempts to use FU when none available (Count)
system.cpu.statFuBusy::SimdAes                      0      0.00%     67.69% # attempts to use FU when none available (Count)
system.cpu.statFuBusy::SimdAesMix                   0      0.00%     67.69% # attempts to use FU when none available (Count)
system.cpu.statFuBusy::SimdSha1Hash                 0      0.00%     67.69% # attempts to use FU when none available (Count)
system.cpu.statFuBusy::SimdSha1Hash2                0      0.00%     67.69% # attempts to use FU when none available (Count)
system.cpu.statFuBusy::SimdSha256Hash               0      0.00%     67.69% # attempts to use FU when none available (Count)
system.cpu.statFuBusy::SimdSha256Hash2              0      0.00%     67.69% # attempts to use FU when none available (Count)
system.cpu.statFuBusy::SimdShaSigma2                0      0.00%     67.69% # attempts to use FU when none available (Count)
system.cpu.statFuBusy::SimdShaSigma3                0      0.00%     67.69% # attempts to use FU when none available (Count)
system.cpu.statFuBusy::SimdPredAlu                  0      0.00%     67.69% # attempts to use FU when none available (Count)
system.cpu.statFuBusy::MemRead                  21045     30.73%     98.41% # attempts to use FU when none available (Count)
system.cpu.statFuBusy::MemWrite                  1086      1.59%    100.00% # attempts to use FU when none available (Count)
system.cpu.statFuBusy::FloatMemRead                 0      0.00%    100.00% # attempts to use FU when none available (Count)
system.cpu.statFuBusy::FloatMemWrite                0      0.00%    100.00% # attempts to use FU when none available (Count)
system.cpu.statFuBusy::IprAccess                    0      0.00%    100.00% # attempts to use FU when none available (Count)
system.cpu.statFuBusy::InstPrefetch                 0      0.00%    100.00% # attempts to use FU when none available (Count)
system.cpu.statIssuedInstType_0::No_OpClass       112668     10.58%     10.58% # Number of instructions issued per FU type, per thread (Count)
system.cpu.statIssuedInstType_0::IntAlu        184411     17.31%     27.89% # Number of instructions issued per FU type, per thread (Count)
system.cpu.statIssuedInstType_0::IntMult            0      0.00%     27.89% # Number of instructions issued per FU type, per thread (Count)
system.cpu.statIssuedInstType_0::IntDiv             0      0.00%     27.89% # Number of instructions issued per FU type, per thread (Count)
system.cpu.statIssuedInstType_0::FloatAdd            0      0.00%     27.89% # Number of instructions issued per FU type, per thread (Count)
system.cpu.statIssuedInstType_0::FloatCmp            0      0.00%     27.89% # Number of instructions issued per FU type, per thread (Count)
system.cpu.statIssuedInstType_0::FloatCvt            0      0.00%     27.89% # Number of instructions issued per FU type, per thread (Count)
system.cpu.statIssuedInstType_0::FloatMult            0      0.00%     27.89% # Number of instructions issued per FU type, per thread (Count)
system.cpu.statIssuedInstType_0::FloatMultAcc            0      0.00%     27.89% # Number of instructions issued per FU type, per thread (Count)
system.cpu.statIssuedInstType_0::FloatDiv            0      0.00%     27.89% # Number of instructions issued per FU type, per thread (Count)
system.cpu.statIssuedInstType_0::FloatMisc            0      0.00%     27.89% # Number of instructions issued per FU type, per thread (Count)
system.cpu.statIssuedInstType_0::FloatSqrt            0      0.00%     27.89% # Number of instructions issued per FU type, per thread (Count)
system.cpu.statIssuedInstType_0::SimdAdd       123207     11.57%     39.46% # Number of instructions issued per FU type, per thread (Count)
system.cpu.statIssuedInstType_0::SimdAddAcc            0      0.00%     39.46% # Number of instructions issued per FU type, per thread (Count)
system.cpu.statIssuedInstType_0::SimdAlu       257827     24.21%     63.67% # Number of instructions issued per FU type, per thread (Count)
system.cpu.statIssuedInstType_0::SimdCmp            0      0.00%     63.67% # Number of instructions issued per FU type, per thread (Count)
system.cpu.statIssuedInstType_0::SimdCvt            0      0.00%     63.67% # Number of instructions issued per FU type, per thread (Count)
system.cpu.statIssuedInstType_0::SimdMisc         7200      0.68%     64.34% # Number of instructions issued per FU type, per thread (Count)
system.cpu.statIssuedInstType_0::SimdMult            0      0.00%     64.34% # Number of instructions issued per FU type, per thread (Count)
system.cpu.statIssuedInstType_0::SimdMultAcc            0      0.00%     64.34% # Number of instructions issued per FU type, per thread (Count)
system.cpu.statIssuedInstType_0::SimdShift            0      0.00%     64.34% # Number of instructions issued per FU type, per thread (Count)
system.cpu.statIssuedInstType_0::SimdShiftAcc            0      0.00%     64.34% # Number of instructions issued per FU type, per thread (Count)
system.cpu.statIssuedInstType_0::SimdDiv            0      0.00%     64.34% # Number of instructions issued per FU type, per thread (Count)
system.cpu.statIssuedInstType_0::SimdSqrt            0      0.00%     64.34% # Number of instructions issued per FU type, per thread (Count)
system.cpu.statIssuedInstType_0::SimdFloatAdd            0      0.00%     64.34% # Number of instructions issued per FU type, per thread (Count)
system.cpu.statIssuedInstType_0::SimdFloatAlu            0      0.00%     64.34% # Number of instructions issued per FU type, per thread (Count)
system.cpu.statIssuedInstType_0::SimdFloatCmp            0      0.00%     64.34% # Number of instructions issued per FU type, per thread (Count)
system.cpu.statIssuedInstType_0::SimdFloatCvt            0      0.00%     64.34% # Number of instructions issued per FU type, per thread (Count)
system.cpu.statIssuedInstType_0::SimdFloatDiv            0      0.00%     64.34% # Number of instructions issued per FU type, per thread (Count)
system.cpu.statIssuedInstType_0::SimdFloatMisc            0      0.00%     64.34% # Number of instructions issued per FU type, per thread (Count)
system.cpu.statIssuedInstType_0::SimdFloatMult            0      0.00%     64.34% # Number of instructions issued per FU type, per thread (Count)
system.cpu.statIssuedInstType_0::SimdFloatMultAcc            0      0.00%     64.34% # Number of instructions issued per FU type, per thread (Count)
system.cpu.statIssuedInstType_0::SimdFloatSqrt            0      0.00%     64.34% # Number of instructions issued per FU type, per thread (Count)
system.cpu.statIssuedInstType_0::SimdReduceAdd            0      0.00%     64.34% # Number of instructions issued per FU type, per thread (Count)
system.cpu.statIssuedInstType_0::SimdReduceAlu            0      0.00%     64.34% # Number of instructions issued per FU type, per thread (Count)
system.cpu.statIssuedInstType_0::SimdReduceCmp            0      0.00%     64.34% # Number of instructions issued per FU type, per thread (Count)
system.cpu.statIssuedInstType_0::SimdFloatReduceAdd            0      0.00%     64.34% # Number of instructions issued per FU type, per thread (Count)
system.cpu.statIssuedInstType_0::SimdFloatReduceCmp            0      0.00%     64.34% # Number of instructions issued per FU type, per thread (Count)
system.cpu.statIssuedInstType_0::SimdAes            0      0.00%     64.34% # Number of instructions issued per FU type, per thread (Count)
system.cpu.statIssuedInstType_0::SimdAesMix            0      0.00%     64.34% # Number of instructions issued per FU type, per thread (Count)
system.cpu.statIssuedInstType_0::SimdSha1Hash            0      0.00%     64.34% # Number of instructions issued per FU type, per thread (Count)
system.cpu.statIssuedInstType_0::SimdSha1Hash2            0      0.00%     64.34% # Number of instructions issued per FU type, per thread (Count)
system.cpu.statIssuedInstType_0::SimdSha256Hash            0      0.00%     64.34% # Number of instructions issued per FU type, per thread (Count)
system.cpu.statIssuedInstType_0::SimdSha256Hash2            0      0.00%     64.34% # Number of instructions issued per FU type, per thread (Count)
system.cpu.statIssuedInstType_0::SimdShaSigma2            0      0.00%     64.34% # Number of instructions issued per FU type, per thread (Count)
system.cpu.statIssuedInstType_0::SimdShaSigma3            0      0.00%     64.34% # Number of instructions issued per FU type, per thread (Count)
system.cpu.statIssuedInstType_0::SimdPredAlu            0      0.00%     64.34% # Number of instructions issued per FU type, per thread (Count)
system.cpu.statIssuedInstType_0::MemRead       279280     26.22%     90.56% # Number of instructions issued per FU type, per thread (Count)
system.cpu.statIssuedInstType_0::MemWrite       100495      9.44%    100.00% # Number of instructions issued per FU type, per thread (Count)
system.cpu.statIssuedInstType_0::FloatMemRead            0      0.00%    100.00% # Number of instructions issued per FU type, per thread (Count)
system.cpu.statIssuedInstType_0::FloatMemWrite            0      0.00%    100.00% # Number of instructions issued per FU type, per thread (Count)
system.cpu.statIssuedInstType_0::IprAccess            0      0.00%    100.00% # Number of instructions issued per FU type, per thread (Count)
system.cpu.statIssuedInstType_0::InstPrefetch            0      0.00%    100.00% # Number of instructions issued per FU type, per thread (Count)
system.cpu.statIssuedInstType_0::total        1065088                       # Number of instructions issued per FU type, per thread (Count)
system.cpu.issueRate                         2.037128                       # Inst issue rate ((Count/Cycle))
system.cpu.fuBusy                               68492                       # FU busy when requested (Count)
system.cpu.fuBusyRate                        0.064306                       # FU busy rate (busy events/executed inst) ((Count/Count))
system.cpu.intInstQueueReads                   904349                       # Number of integer instruction queue reads (Count)
system.cpu.intInstQueueWrites                  195126                       # Number of integer instruction queue writes (Count)
system.cpu.intInstQueueWakeupAccesses          191586                       # Number of integer instruction queue wakeup accesses (Count)
system.cpu.fpInstQueueReads                         0                       # Number of floating instruction queue reads (Count)
system.cpu.fpInstQueueWrites                        0                       # Number of floating instruction queue writes (Count)
system.cpu.fpInstQueueWakeupAccesses                0                       # Number of floating instruction queue wakeup accesses (Count)
system.cpu.vecInstQueueReads                  1809362                       # Number of vector instruction queue reads (Count)
system.cpu.vecInstQueueWrites                  879304                       # Number of vector instruction queue writes (Count)
system.cpu.vecInstQueueWakeupAccesses          869724                       # Number of vector instruction queue wakeup accesses (Count)
system.cpu.intAluAccesses                      197509                       # Number of integer alu accesses (Count)
system.cpu.fpAluAccesses                            0                       # Number of floating point alu accesses (Count)
system.cpu.vecAluAccesses                      823403                       # Number of vector alu accesses (Count)
system.cpu.numInsts                           1064840                       # Number of executed instructions (Count)
system.cpu.numLoadInsts                        279253                       # Number of load instructions executed (Count)
system.cpu.numSquashedInsts                       252                       # Number of squashed instructions skipped in execute (Count)
system.cpu.numSwp                                   0                       # Number of swp insts executed (Count)
system.cpu.numNop                                  62                       # Number of nop insts executed (Count)
system.cpu.numRefs                             379743                       # Number of memory reference insts executed (Count)
system.cpu.numBranches                           1035                       # Number of branches executed (Count)
system.cpu.numStoreInsts                       100490                       # Number of stores executed (Count)
system.cpu.numRate                           2.036654                       # Inst execution rate ((Count/Cycle))
system.cpu.timesIdled                              72                       # Number of times that the entire CPU went into an idle state and unscheduled itself (Count)
system.cpu.idleCycles                            7878                       # Total number of cycles that the CPU has spent unscheduled due to idling (Cycle)
system.cpu.committedInsts                      744534                       # Number of Instructions Simulated (Count)
system.cpu.committedOps                       1055441                       # Number of Ops (including micro ops) Simulated (Count)
system.cpu.cpi                               0.702235                       # CPI: Cycles Per Instruction ((Cycle/Count))
system.cpu.totalCpi                          0.702235                       # CPI: Total CPI of All Threads ((Cycle/Count))
system.cpu.ipc                               1.424024                       # IPC: Instructions Per Cycle ((Count/Cycle))
system.cpu.totalIpc                          1.424024                       # IPC: Total IPC of All Threads ((Count/Cycle))
system.cpu.intRegfileReads                     629279                       # Number of integer regfile reads (Count)
system.cpu.intRegfileWrites                    179842                       # Number of integer regfile writes (Count)
system.cpu.vecRegfileReads                    2147357                       # number of vector regfile reads (Count)
system.cpu.ccRegfileReads                       68940                       # number of cc regfile reads (Count)
system.cpu.ccRegfileWrites                      68976                       # number of cc regfile writes (Count)
system.cpu.miscRegfileReads                   1522026                       # number of misc regfile reads (Count)
system.cpu.MemDepUnit__0.insertedLoads         276509                       # Number of loads inserted to the mem dependence unit. (Count)
system.cpu.MemDepUnit__0.insertedStores        101168                       # Number of stores inserted to the mem dependence unit. (Count)
system.cpu.MemDepUnit__0.conflictingLoads        21217                       # Number of conflicting loads. (Count)
system.cpu.MemDepUnit__0.conflictingStores        39507                       # Number of conflicting stores. (Count)
system.cpu.MemDepUnit__1.insertedLoads              0                       # Number of loads inserted to the mem dependence unit. (Count)
system.cpu.MemDepUnit__1.insertedStores             0                       # Number of stores inserted to the mem dependence unit. (Count)
system.cpu.MemDepUnit__1.conflictingLoads            0                       # Number of conflicting loads. (Count)
system.cpu.MemDepUnit__1.conflictingStores            0                       # Number of conflicting stores. (Count)
system.cpu.MemDepUnit__2.insertedLoads              0                       # Number of loads inserted to the mem dependence unit. (Count)
system.cpu.MemDepUnit__2.insertedStores             0                       # Number of stores inserted to the mem dependence unit. (Count)
system.cpu.MemDepUnit__2.conflictingLoads            0                       # Number of conflicting loads. (Count)
system.cpu.MemDepUnit__2.conflictingStores            0                       # Number of conflicting stores. (Count)
system.cpu.MemDepUnit__3.insertedLoads              0                       # Number of loads inserted to the mem dependence unit. (Count)
system.cpu.MemDepUnit__3.insertedStores             0                       # Number of stores inserted to the mem dependence unit. (Count)
system.cpu.MemDepUnit__3.conflictingLoads            0                       # Number of conflicting loads. (Count)
system.cpu.MemDepUnit__3.conflictingStores            0                       # Number of conflicting stores. (Count)
system.cpu.branchPred.lookups                    1049                       # Number of BP lookups (Count)
system.cpu.branchPred.condPredicted              1037                       # Number of conditional branches predicted (Count)
system.cpu.branchPred.condIncorrect                71                       # Number of conditional branches incorrect (Count)
system.cpu.branchPred.BTBLookups                  972                       # Number of BTB lookups (Count)
system.cpu.branchPred.BTBUpdates                    9                       # Number of BTB updates (Count)
system.cpu.branchPred.BTBHits                     961                       # Number of BTB hits (Count)
system.cpu.branchPred.BTBHitRatio            0.988683                       # BTB Hit Ratio (Ratio)
system.cpu.branchPred.RASUsed                       2                       # Number of times the RAS was used to get a target. (Count)
system.cpu.branchPred.RASIncorrect                  0                       # Number of incorrect RAS predictions. (Count)
system.cpu.branchPred.indirectLookups               1                       # Number of indirect predictor lookups. (Count)
system.cpu.branchPred.indirectHits                  0                       # Number of indirect target hits. (Count)
system.cpu.branchPred.indirectMisses                1                       # Number of indirect misses. (Count)
system.cpu.branchPred.indirectMispredicted            0                       # Number of mispredicted indirect branches. (Count)
system.cpu.commit.commitSquashedInsts            8415                       # The number of squashed insts skipped by commit (Count)
system.cpu.commit.commitNonSpecStalls               1                       # The number of times commit has been forced to stall to communicate backwards (Count)
system.cpu.commit.branchMispredicts                69                       # The number of times a branch was mispredicted (Count)
system.cpu.commit.numCommittedDist::samples       513813                       # Number of insts commited each cycle (Count)
system.cpu.commit.numCommittedDist::mean     2.054257                       # Number of insts commited each cycle (Count)
system.cpu.commit.numCommittedDist::stdev     3.234048                       # Number of insts commited each cycle (Count)
system.cpu.commit.numCommittedDist::underflows            0      0.00%      0.00% # Number of insts commited each cycle (Count)
system.cpu.commit.numCommittedDist::0          328503     63.93%     63.93% # Number of insts commited each cycle (Count)
system.cpu.commit.numCommittedDist::1           33971      6.61%     70.55% # Number of insts commited each cycle (Count)
system.cpu.commit.numCommittedDist::2           12783      2.49%     73.03% # Number of insts commited each cycle (Count)
system.cpu.commit.numCommittedDist::3            4989      0.97%     74.00% # Number of insts commited each cycle (Count)
system.cpu.commit.numCommittedDist::4            9419      1.83%     75.84% # Number of insts commited each cycle (Count)
system.cpu.commit.numCommittedDist::5            7577      1.47%     77.31% # Number of insts commited each cycle (Count)
system.cpu.commit.numCommittedDist::6            9265      1.80%     79.12% # Number of insts commited each cycle (Count)
system.cpu.commit.numCommittedDist::7            8599      1.67%     80.79% # Number of insts commited each cycle (Count)
system.cpu.commit.numCommittedDist::8           98707     19.21%    100.00% # Number of insts commited each cycle (Count)
system.cpu.commit.numCommittedDist::overflows            0      0.00%    100.00% # Number of insts commited each cycle (Count)
system.cpu.commit.numCommittedDist::min_value            0                       # Number of insts commited each cycle (Count)
system.cpu.commit.numCommittedDist::max_value            8                       # Number of insts commited each cycle (Count)
system.cpu.commit.numCommittedDist::total       513813                       # Number of insts commited each cycle (Count)
system.cpu.commit.instsCommitted               744597                       # Number of instructions committed (Count)
system.cpu.commit.opsCommitted                1055504                       # Number of ops (including micro ops) committed (Count)
system.cpu.commit.memRefs                      374479                       # Number of memory references committed (Count)
system.cpu.commit.loads                        274147                       # Number of loads committed (Count)
system.cpu.commit.amos                              0                       # Number of atomic instructions committed (Count)
system.cpu.commit.membars                           0                       # Number of memory barriers committed (Count)
system.cpu.commit.branches                       1027                       # Number of branches committed (Count)
system.cpu.commit.vectorInstructions           865772                       # Number of committed Vector instructions. (Count)
system.cpu.commit.floating                          0                       # Number of committed floating point instructions. (Count)
system.cpu.commit.integer                      563056                       # Number of committed integer instructions. (Count)
system.cpu.commit.functionCalls                     1                       # Number of function calls committed. (Count)
system.cpu.commit.committedInstType_0::No_OpClass       112460     10.65%     10.65% # Class of committed instruction (Count)
system.cpu.commit.committedInstType_0::IntAlu       182464     17.29%     27.94% # Class of committed instruction (Count)
system.cpu.commit.committedInstType_0::IntMult            1      0.00%     27.94% # Class of committed instruction (Count)
system.cpu.commit.committedInstType_0::IntDiv            0      0.00%     27.94% # Class of committed instruction (Count)
system.cpu.commit.committedInstType_0::FloatAdd            0      0.00%     27.94% # Class of committed instruction (Count)
system.cpu.commit.committedInstType_0::FloatCmp            0      0.00%     27.94% # Class of committed instruction (Count)
system.cpu.commit.committedInstType_0::FloatCvt            0      0.00%     27.94% # Class of committed instruction (Count)
system.cpu.commit.committedInstType_0::FloatMult            0      0.00%     27.94% # Class of committed instruction (Count)
system.cpu.commit.committedInstType_0::FloatMultAcc            0      0.00%     27.94% # Class of committed instruction (Count)
system.cpu.commit.committedInstType_0::FloatDiv            0      0.00%     27.94% # Class of committed instruction (Count)
system.cpu.commit.committedInstType_0::FloatMisc            0      0.00%     27.94% # Class of committed instruction (Count)
system.cpu.commit.committedInstType_0::FloatSqrt            0      0.00%     27.94% # Class of committed instruction (Count)
system.cpu.commit.committedInstType_0::SimdAdd       122400     11.60%     39.54% # Class of committed instruction (Count)
system.cpu.commit.committedInstType_0::SimdAddAcc            0      0.00%     39.54% # Class of committed instruction (Count)
system.cpu.commit.committedInstType_0::SimdAlu       256500     24.30%     63.84% # Class of committed instruction (Count)
system.cpu.commit.committedInstType_0::SimdCmp            0      0.00%     63.84% # Class of committed instruction (Count)
system.cpu.commit.committedInstType_0::SimdCvt            0      0.00%     63.84% # Class of committed instruction (Count)
system.cpu.commit.committedInstType_0::SimdMisc         7200      0.68%     64.52% # Class of committed instruction (Count)
system.cpu.commit.committedInstType_0::SimdMult            0      0.00%     64.52% # Class of committed instruction (Count)
system.cpu.commit.committedInstType_0::SimdMultAcc            0      0.00%     64.52% # Class of committed instruction (Count)
system.cpu.commit.committedInstType_0::SimdShift            0      0.00%     64.52% # Class of committed instruction (Count)
system.cpu.commit.committedInstType_0::SimdShiftAcc            0      0.00%     64.52% # Class of committed instruction (Count)
system.cpu.commit.committedInstType_0::SimdDiv            0      0.00%     64.52% # Class of committed instruction (Count)
system.cpu.commit.committedInstType_0::SimdSqrt            0      0.00%     64.52% # Class of committed instruction (Count)
system.cpu.commit.committedInstType_0::SimdFloatAdd            0      0.00%     64.52% # Class of committed instruction (Count)
system.cpu.commit.committedInstType_0::SimdFloatAlu            0      0.00%     64.52% # Class of committed instruction (Count)
system.cpu.commit.committedInstType_0::SimdFloatCmp            0      0.00%     64.52% # Class of committed instruction (Count)
system.cpu.commit.committedInstType_0::SimdFloatCvt            0      0.00%     64.52% # Class of committed instruction (Count)
system.cpu.commit.committedInstType_0::SimdFloatDiv            0      0.00%     64.52% # Class of committed instruction (Count)
system.cpu.commit.committedInstType_0::SimdFloatMisc            0      0.00%     64.52% # Class of committed instruction (Count)
system.cpu.commit.committedInstType_0::SimdFloatMult            0      0.00%     64.52% # Class of committed instruction (Count)
system.cpu.commit.committedInstType_0::SimdFloatMultAcc            0      0.00%     64.52% # Class of committed instruction (Count)
system.cpu.commit.committedInstType_0::SimdFloatSqrt            0      0.00%     64.52% # Class of committed instruction (Count)
system.cpu.commit.committedInstType_0::SimdReduceAdd            0      0.00%     64.52% # Class of committed instruction (Count)
system.cpu.commit.committedInstType_0::SimdReduceAlu            0      0.00%     64.52% # Class of committed instruction (Count)
system.cpu.commit.committedInstType_0::SimdReduceCmp            0      0.00%     64.52% # Class of committed instruction (Count)
system.cpu.commit.committedInstType_0::SimdFloatReduceAdd            0      0.00%     64.52% # Class of committed instruction (Count)
system.cpu.commit.committedInstType_0::SimdFloatReduceCmp            0      0.00%     64.52% # Class of committed instruction (Count)
system.cpu.commit.committedInstType_0::SimdAes            0      0.00%     64.52% # Class of committed instruction (Count)
system.cpu.commit.committedInstType_0::SimdAesMix            0      0.00%     64.52% # Class of committed instruction (Count)
system.cpu.commit.committedInstType_0::SimdSha1Hash            0      0.00%     64.52% # Class of committed instruction (Count)
system.cpu.commit.committedInstType_0::SimdSha1Hash2            0      0.00%     64.52% # Class of committed instruction (Count)
system.cpu.commit.committedInstType_0::SimdSha256Hash            0      0.00%     64.52% # Class of committed instruction (Count)
system.cpu.commit.committedInstType_0::SimdSha256Hash2            0      0.00%     64.52% # Class of committed instruction (Count)
system.cpu.commit.committedInstType_0::SimdShaSigma2            0      0.00%     64.52% # Class of committed instruction (Count)
system.cpu.commit.committedInstType_0::SimdShaSigma3            0      0.00%     64.52% # Class of committed instruction (Count)
system.cpu.commit.committedInstType_0::SimdPredAlu            0      0.00%     64.52% # Class of committed instruction (Count)
system.cpu.commit.committedInstType_0::MemRead       274147     25.97%     90.49% # Class of committed instruction (Count)
system.cpu.commit.committedInstType_0::MemWrite       100332      9.51%    100.00% # Class of committed instruction (Count)
system.cpu.commit.committedInstType_0::FloatMemRead            0      0.00%    100.00% # Class of committed instruction (Count)
system.cpu.commit.committedInstType_0::FloatMemWrite            0      0.00%    100.00% # Class of committed instruction (Count)
system.cpu.commit.committedInstType_0::IprAccess            0      0.00%    100.00% # Class of committed instruction (Count)
system.cpu.commit.committedInstType_0::InstPrefetch            0      0.00%    100.00% # Class of committed instruction (Count)
system.cpu.commit.committedInstType_0::total      1055504                       # Class of committed instruction (Count)
system.cpu.commit.commitEligibleSamples         98707                       # number cycles where commit BW limit reached (Cycle)
system.cpu.dcache.demandHits::cpu.data         330751                       # number of demand (read+write) hits (Count)
system.cpu.dcache.demandHits::total            330751                       # number of demand (read+write) hits (Count)
system.cpu.dcache.overallHits::cpu.data        330751                       # number of overall hits (Count)
system.cpu.dcache.overallHits::total           330751                       # number of overall hits (Count)
system.cpu.dcache.demandMisses::cpu.data        18623                       # number of demand (read+write) misses (Count)
system.cpu.dcache.demandMisses::total           18623                       # number of demand (read+write) misses (Count)
system.cpu.dcache.overallMisses::cpu.data        18623                       # number of overall misses (Count)
system.cpu.dcache.overallMisses::total          18623                       # number of overall misses (Count)
system.cpu.dcache.demandMissLatency::cpu.data    784385500                       # number of demand (read+write) miss ticks (Tick)
system.cpu.dcache.demandMissLatency::total    784385500                       # number of demand (read+write) miss ticks (Tick)
system.cpu.dcache.overallMissLatency::cpu.data    784385500                       # number of overall miss ticks (Tick)
system.cpu.dcache.overallMissLatency::total    784385500                       # number of overall miss ticks (Tick)
system.cpu.dcache.demandAccesses::cpu.data       349374                       # number of demand (read+write) accesses (Count)
system.cpu.dcache.demandAccesses::total        349374                       # number of demand (read+write) accesses (Count)
system.cpu.dcache.overallAccesses::cpu.data       349374                       # number of overall (read+write) accesses (Count)
system.cpu.dcache.overallAccesses::total       349374                       # number of overall (read+write) accesses (Count)
system.cpu.dcache.demandMissRate::cpu.data     0.053304                       # miss rate for demand accesses (Ratio)
system.cpu.dcache.demandMissRate::total      0.053304                       # miss rate for demand accesses (Ratio)
system.cpu.dcache.overallMissRate::cpu.data     0.053304                       # miss rate for overall accesses (Ratio)
system.cpu.dcache.overallMissRate::total     0.053304                       # miss rate for overall accesses (Ratio)
system.cpu.dcache.demandAvgMissLatency::cpu.data 42119.180583                       # average overall miss latency in ticks ((Tick/Count))
system.cpu.dcache.demandAvgMissLatency::total 42119.180583                       # average overall miss latency in ticks ((Tick/Count))
system.cpu.dcache.overallAvgMissLatency::cpu.data 42119.180583                       # average overall miss latency ((Tick/Count))
system.cpu.dcache.overallAvgMissLatency::total 42119.180583                       # average overall miss latency ((Tick/Count))
system.cpu.dcache.blockedCycles::no_mshrs         7667                       # number of cycles access was blocked (Cycle)
system.cpu.dcache.blockedCycles::no_targets            0                       # number of cycles access was blocked (Cycle)
system.cpu.dcache.blockedCauses::no_mshrs          134                       # number of times access was blocked (Count)
system.cpu.dcache.blockedCauses::no_targets            0                       # number of times access was blocked (Count)
system.cpu.dcache.avgBlocked::no_mshrs      57.216418                       # average number of cycles each access was blocked ((Cycle/Count))
system.cpu.dcache.avgBlocked::no_targets          nan                       # average number of cycles each access was blocked ((Cycle/Count))
system.cpu.dcache.writebacks::writebacks          749                       # number of writebacks (Count)
system.cpu.dcache.writebacks::total               749                       # number of writebacks (Count)
system.cpu.dcache.demandMshrHits::cpu.data        11179                       # number of demand (read+write) MSHR hits (Count)
system.cpu.dcache.demandMshrHits::total         11179                       # number of demand (read+write) MSHR hits (Count)
system.cpu.dcache.overallMshrHits::cpu.data        11179                       # number of overall MSHR hits (Count)
system.cpu.dcache.overallMshrHits::total        11179                       # number of overall MSHR hits (Count)
system.cpu.dcache.demandMshrMisses::cpu.data         7444                       # number of demand (read+write) MSHR misses (Count)
system.cpu.dcache.demandMshrMisses::total         7444                       # number of demand (read+write) MSHR misses (Count)
system.cpu.dcache.overallMshrMisses::cpu.data         7444                       # number of overall MSHR misses (Count)
system.cpu.dcache.overallMshrMisses::total         7444                       # number of overall MSHR misses (Count)
system.cpu.dcache.demandMshrMissLatency::cpu.data    337890000                       # number of demand (read+write) MSHR miss ticks (Tick)
system.cpu.dcache.demandMshrMissLatency::total    337890000                       # number of demand (read+write) MSHR miss ticks (Tick)
system.cpu.dcache.overallMshrMissLatency::cpu.data    337890000                       # number of overall MSHR miss ticks (Tick)
system.cpu.dcache.overallMshrMissLatency::total    337890000                       # number of overall MSHR miss ticks (Tick)
system.cpu.dcache.demandMshrMissRate::cpu.data     0.021307                       # mshr miss ratio for demand accesses (Ratio)
system.cpu.dcache.demandMshrMissRate::total     0.021307                       # mshr miss ratio for demand accesses (Ratio)
system.cpu.dcache.overallMshrMissRate::cpu.data     0.021307                       # mshr miss ratio for overall accesses (Ratio)
system.cpu.dcache.overallMshrMissRate::total     0.021307                       # mshr miss ratio for overall accesses (Ratio)
system.cpu.dcache.demandAvgMshrMissLatency::cpu.data 45390.918861                       # average overall mshr miss latency ((Tick/Count))
system.cpu.dcache.demandAvgMshrMissLatency::total 45390.918861                       # average overall mshr miss latency ((Tick/Count))
system.cpu.dcache.overallAvgMshrMissLatency::cpu.data 45390.918861                       # average overall mshr miss latency ((Tick/Count))
system.cpu.dcache.overallAvgMshrMissLatency::total 45390.918861                       # average overall mshr miss latency ((Tick/Count))
system.cpu.dcache.replacements                   7444                       # number of replacements (Count)
system.cpu.dcache.ReadReq.hits::cpu.data       230882                       # number of ReadReq hits (Count)
system.cpu.dcache.ReadReq.hits::total          230882                       # number of ReadReq hits (Count)
system.cpu.dcache.ReadReq.misses::cpu.data        18160                       # number of ReadReq misses (Count)
system.cpu.dcache.ReadReq.misses::total         18160                       # number of ReadReq misses (Count)
system.cpu.dcache.ReadReq.missLatency::cpu.data    762763000                       # number of ReadReq miss ticks (Tick)
system.cpu.dcache.ReadReq.missLatency::total    762763000                       # number of ReadReq miss ticks (Tick)
system.cpu.dcache.ReadReq.accesses::cpu.data       249042                       # number of ReadReq accesses(hits+misses) (Count)
system.cpu.dcache.ReadReq.accesses::total       249042                       # number of ReadReq accesses(hits+misses) (Count)
system.cpu.dcache.ReadReq.missRate::cpu.data     0.072919                       # miss rate for ReadReq accesses (Ratio)
system.cpu.dcache.ReadReq.missRate::total     0.072919                       # miss rate for ReadReq accesses (Ratio)
system.cpu.dcache.ReadReq.avgMissLatency::cpu.data 42002.367841                       # average ReadReq miss latency ((Tick/Count))
system.cpu.dcache.ReadReq.avgMissLatency::total 42002.367841                       # average ReadReq miss latency ((Tick/Count))
system.cpu.dcache.ReadReq.mshrHits::cpu.data        11169                       # number of ReadReq MSHR hits (Count)
system.cpu.dcache.ReadReq.mshrHits::total        11169                       # number of ReadReq MSHR hits (Count)
system.cpu.dcache.ReadReq.mshrMisses::cpu.data         6991                       # number of ReadReq MSHR misses (Count)
system.cpu.dcache.ReadReq.mshrMisses::total         6991                       # number of ReadReq MSHR misses (Count)
system.cpu.dcache.ReadReq.mshrMissLatency::cpu.data    317520000                       # number of ReadReq MSHR miss ticks (Tick)
system.cpu.dcache.ReadReq.mshrMissLatency::total    317520000                       # number of ReadReq MSHR miss ticks (Tick)
system.cpu.dcache.ReadReq.mshrMissRate::cpu.data     0.028072                       # mshr miss rate for ReadReq accesses (Ratio)
system.cpu.dcache.ReadReq.mshrMissRate::total     0.028072                       # mshr miss rate for ReadReq accesses (Ratio)
system.cpu.dcache.ReadReq.avgMshrMissLatency::cpu.data 45418.395079                       # average ReadReq mshr miss latency ((Tick/Count))
system.cpu.dcache.ReadReq.avgMshrMissLatency::total 45418.395079                       # average ReadReq mshr miss latency ((Tick/Count))
system.cpu.dcache.WriteReq.hits::cpu.data        99869                       # number of WriteReq hits (Count)
system.cpu.dcache.WriteReq.hits::total          99869                       # number of WriteReq hits (Count)
system.cpu.dcache.WriteReq.misses::cpu.data          463                       # number of WriteReq misses (Count)
system.cpu.dcache.WriteReq.misses::total          463                       # number of WriteReq misses (Count)
system.cpu.dcache.WriteReq.missLatency::cpu.data     21622500                       # number of WriteReq miss ticks (Tick)
system.cpu.dcache.WriteReq.missLatency::total     21622500                       # number of WriteReq miss ticks (Tick)
system.cpu.dcache.WriteReq.accesses::cpu.data       100332                       # number of WriteReq accesses(hits+misses) (Count)
system.cpu.dcache.WriteReq.accesses::total       100332                       # number of WriteReq accesses(hits+misses) (Count)
system.cpu.dcache.WriteReq.missRate::cpu.data     0.004615                       # miss rate for WriteReq accesses (Ratio)
system.cpu.dcache.WriteReq.missRate::total     0.004615                       # miss rate for WriteReq accesses (Ratio)
system.cpu.dcache.WriteReq.avgMissLatency::cpu.data 46700.863931                       # average WriteReq miss latency ((Tick/Count))
system.cpu.dcache.WriteReq.avgMissLatency::total 46700.863931                       # average WriteReq miss latency ((Tick/Count))
system.cpu.dcache.WriteReq.mshrHits::cpu.data           10                       # number of WriteReq MSHR hits (Count)
system.cpu.dcache.WriteReq.mshrHits::total           10                       # number of WriteReq MSHR hits (Count)
system.cpu.dcache.WriteReq.mshrMisses::cpu.data          453                       # number of WriteReq MSHR misses (Count)
system.cpu.dcache.WriteReq.mshrMisses::total          453                       # number of WriteReq MSHR misses (Count)
system.cpu.dcache.WriteReq.mshrMissLatency::cpu.data     20370000                       # number of WriteReq MSHR miss ticks (Tick)
system.cpu.dcache.WriteReq.mshrMissLatency::total     20370000                       # number of WriteReq MSHR miss ticks (Tick)
system.cpu.dcache.WriteReq.mshrMissRate::cpu.data     0.004515                       # mshr miss rate for WriteReq accesses (Ratio)
system.cpu.dcache.WriteReq.mshrMissRate::total     0.004515                       # mshr miss rate for WriteReq accesses (Ratio)
system.cpu.dcache.WriteReq.avgMshrMissLatency::cpu.data 44966.887417                       # average WriteReq mshr miss latency ((Tick/Count))
system.cpu.dcache.WriteReq.avgMshrMissLatency::total 44966.887417                       # average WriteReq mshr miss latency ((Tick/Count))
system.cpu.dcache.power_state.pwrStateResidencyTicks::UNDEFINED   1257036000                       # Cumulative time (in ticks) in various power states (Tick)
system.cpu.dcache.tags.tagsInUse                 1024                       # Average ticks per tags in use ((Tick/Count))
system.cpu.dcache.tags.totalRefs               106311                       # Total number of references to valid blocks. (Count)
system.cpu.dcache.tags.sampledRefs               7444                       # Sample count of references to valid blocks. (Count)
system.cpu.dcache.tags.avgRefs              14.281435                       # Average number of references to valid blocks. ((Count/Count))
system.cpu.dcache.tags.warmupTick                   0                       # The tick when the warmup percentage was hit. (Tick)
system.cpu.dcache.tags.occupancies::cpu.data         1024                       # Average occupied blocks per tick, per requestor ((Count/Tick))
system.cpu.dcache.tags.avgOccs::cpu.data            1                       # Average percentage of cache occupancy ((Ratio/Tick))
system.cpu.dcache.tags.avgOccs::total               1                       # Average percentage of cache occupancy ((Ratio/Tick))
system.cpu.dcache.tags.occupanciesTaskId::1024         1024                       # Occupied blocks per task id (Count)
system.cpu.dcache.tags.ageTaskId_1024::0          539                       # Occupied blocks per task id, per block age (Count)
system.cpu.dcache.tags.ageTaskId_1024::1          460                       # Occupied blocks per task id, per block age (Count)
system.cpu.dcache.tags.ageTaskId_1024::2           25                       # Occupied blocks per task id, per block age (Count)
system.cpu.dcache.tags.ratioOccsTaskId::1024            1                       # Ratio of occupied blocks and all blocks, per task id (Ratio)
system.cpu.dcache.tags.tagAccesses            1404940                       # Number of tag accesses (Count)
system.cpu.dcache.tags.dataAccesses           1404940                       # Number of data accesses (Count)
system.cpu.dcache.tags.power_state.pwrStateResidencyTicks::UNDEFINED   1257036000                       # Cumulative time (in ticks) in various power states (Tick)
system.cpu.decode.idleCycles                    34059                       # Number of cycles decode is idle (Cycle)
system.cpu.decode.blockedCycles                336994                       # Number of cycles decode is blocked (Cycle)
system.cpu.decode.runCycles                    134177                       # Number of cycles decode is running (Cycle)
system.cpu.decode.unblockCycles                  9556                       # Number of cycles decode is unblocking (Cycle)
system.cpu.decode.squashCycles                    174                       # Number of cycles decode is squashing (Cycle)
system.cpu.decode.branchResolved                  963                       # Number of times decode resolved a branch (Count)
system.cpu.decode.branchMispred                     2                       # Number of times decode detected a branch misprediction (Count)
system.cpu.decode.decodedInsts                1067105                       # Number of instructions handled by decode (Count)
system.cpu.decode.squashedInsts                     8                       # Number of squashed instructions handled by decode (Count)
system.cpu.fetch.icacheStallCycles              50189                       # Number of cycles fetch is stalled on an Icache miss (Cycle)
system.cpu.fetch.insts                         756672                       # Number of instructions fetch has processed (Count)
system.cpu.fetch.branches                        1049                       # Number of branches that fetch encountered (Count)
system.cpu.fetch.predictedBranches                963                       # Number of branches that fetch has predicted taken (Count)
system.cpu.fetch.cycles                        464595                       # Number of cycles fetch has run and was not squashing or blocked (Cycle)
system.cpu.fetch.squashCycles                     352                       # Number of cycles fetch has spent squashing (Cycle)
system.cpu.fetch.cacheLines                     48208                       # Number of cache lines fetched (Count)
system.cpu.fetch.icacheSquashes                    65                       # Number of outstanding Icache misses that were squashed (Count)
system.cpu.fetch.nisnDist::samples             514960                       # Number of instructions fetched each cycle (Total) (Count)
system.cpu.fetch.nisnDist::mean              2.080903                       # Number of instructions fetched each cycle (Total) (Count)
system.cpu.fetch.nisnDist::stdev             3.390576                       # Number of instructions fetched each cycle (Total) (Count)
system.cpu.fetch.nisnDist::underflows               0      0.00%      0.00% # Number of instructions fetched each cycle (Total) (Count)
system.cpu.fetch.nisnDist::0                   364083     70.70%     70.70% # Number of instructions fetched each cycle (Total) (Count)
system.cpu.fetch.nisnDist::1                     4850      0.94%     71.64% # Number of instructions fetched each cycle (Total) (Count)
system.cpu.fetch.nisnDist::2                     5601      1.09%     72.73% # Number of instructions fetched each cycle (Total) (Count)
system.cpu.fetch.nisnDist::3                     2418      0.47%     73.20% # Number of instructions fetched each cycle (Total) (Count)
system.cpu.fetch.nisnDist::4                     3169      0.62%     73.82% # Number of instructions fetched each cycle (Total) (Count)
system.cpu.fetch.nisnDist::5                     9966      1.94%     75.75% # Number of instructions fetched each cycle (Total) (Count)
system.cpu.fetch.nisnDist::6                     3649      0.71%     76.46% # Number of instructions fetched each cycle (Total) (Count)
system.cpu.fetch.nisnDist::7                     5916      1.15%     77.61% # Number of instructions fetched each cycle (Total) (Count)
system.cpu.fetch.nisnDist::8                   115308     22.39%    100.00% # Number of instructions fetched each cycle (Total) (Count)
system.cpu.fetch.nisnDist::overflows                0      0.00%    100.00% # Number of instructions fetched each cycle (Total) (Count)
system.cpu.fetch.nisnDist::min_value                0                       # Number of instructions fetched each cycle (Total) (Count)
system.cpu.fetch.nisnDist::max_value                8                       # Number of instructions fetched each cycle (Total) (Count)
system.cpu.fetch.nisnDist::total               514960                       # Number of instructions fetched each cycle (Total) (Count)
system.cpu.fetch.branchRate                  0.002006                       # Number of branch fetches per cycle (Ratio)
system.cpu.fetch.rate                        1.447240                       # Number of inst fetches per cycle ((Count/Cycle))
system.cpu.icache.demandHits::cpu.inst          48138                       # number of demand (read+write) hits (Count)
system.cpu.icache.demandHits::total             48138                       # number of demand (read+write) hits (Count)
system.cpu.icache.overallHits::cpu.inst         48138                       # number of overall hits (Count)
system.cpu.icache.overallHits::total            48138                       # number of overall hits (Count)
system.cpu.icache.demandMisses::cpu.inst           70                       # number of demand (read+write) misses (Count)
system.cpu.icache.demandMisses::total              70                       # number of demand (read+write) misses (Count)
system.cpu.icache.overallMisses::cpu.inst           70                       # number of overall misses (Count)
system.cpu.icache.overallMisses::total             70                       # number of overall misses (Count)
system.cpu.icache.demandMissLatency::cpu.inst      5496000                       # number of demand (read+write) miss ticks (Tick)
system.cpu.icache.demandMissLatency::total      5496000                       # number of demand (read+write) miss ticks (Tick)
system.cpu.icache.overallMissLatency::cpu.inst      5496000                       # number of overall miss ticks (Tick)
system.cpu.icache.overallMissLatency::total      5496000                       # number of overall miss ticks (Tick)
system.cpu.icache.demandAccesses::cpu.inst        48208                       # number of demand (read+write) accesses (Count)
system.cpu.icache.demandAccesses::total         48208                       # number of demand (read+write) accesses (Count)
system.cpu.icache.overallAccesses::cpu.inst        48208                       # number of overall (read+write) accesses (Count)
system.cpu.icache.overallAccesses::total        48208                       # number of overall (read+write) accesses (Count)
system.cpu.icache.demandMissRate::cpu.inst     0.001452                       # miss rate for demand accesses (Ratio)
system.cpu.icache.demandMissRate::total      0.001452                       # miss rate for demand accesses (Ratio)
system.cpu.icache.overallMissRate::cpu.inst     0.001452                       # miss rate for overall accesses (Ratio)
system.cpu.icache.overallMissRate::total     0.001452                       # miss rate for overall accesses (Ratio)
system.cpu.icache.demandAvgMissLatency::cpu.inst 78514.285714                       # average overall miss latency in ticks ((Tick/Count))
system.cpu.icache.demandAvgMissLatency::total 78514.285714                       # average overall miss latency in ticks ((Tick/Count))
system.cpu.icache.overallAvgMissLatency::cpu.inst 78514.285714                       # average overall miss latency ((Tick/Count))
system.cpu.icache.overallAvgMissLatency::total 78514.285714                       # average overall miss latency ((Tick/Count))
system.cpu.icache.blockedCycles::no_mshrs            0                       # number of cycles access was blocked (Cycle)
system.cpu.icache.blockedCycles::no_targets            0                       # number of cycles access was blocked (Cycle)
system.cpu.icache.blockedCauses::no_mshrs            0                       # number of times access was blocked (Count)
system.cpu.icache.blockedCauses::no_targets            0                       # number of times access was blocked (Count)
system.cpu.icache.avgBlocked::no_mshrs            nan                       # average number of cycles each access was blocked ((Cycle/Count))
system.cpu.icache.avgBlocked::no_targets          nan                       # average number of cycles each access was blocked ((Cycle/Count))
system.cpu.icache.writebacks::writebacks           66                       # number of writebacks (Count)
system.cpu.icache.writebacks::total                66                       # number of writebacks (Count)
system.cpu.icache.demandMshrHits::cpu.inst            5                       # number of demand (read+write) MSHR hits (Count)
system.cpu.icache.demandMshrHits::total             5                       # number of demand (read+write) MSHR hits (Count)
system.cpu.icache.overallMshrHits::cpu.inst            5                       # number of overall MSHR hits (Count)
system.cpu.icache.overallMshrHits::total            5                       # number of overall MSHR hits (Count)
system.cpu.icache.demandMshrMisses::cpu.inst           65                       # number of demand (read+write) MSHR misses (Count)
system.cpu.icache.demandMshrMisses::total           65                       # number of demand (read+write) MSHR misses (Count)
system.cpu.icache.overallMshrMisses::cpu.inst           65                       # number of overall MSHR misses (Count)
system.cpu.icache.overallMshrMisses::total           65                       # number of overall MSHR misses (Count)
system.cpu.icache.demandMshrMissLatency::cpu.inst      5137000                       # number of demand (read+write) MSHR miss ticks (Tick)
system.cpu.icache.demandMshrMissLatency::total      5137000                       # number of demand (read+write) MSHR miss ticks (Tick)
system.cpu.icache.overallMshrMissLatency::cpu.inst      5137000                       # number of overall MSHR miss ticks (Tick)
system.cpu.icache.overallMshrMissLatency::total      5137000                       # number of overall MSHR miss ticks (Tick)
system.cpu.icache.demandMshrMissRate::cpu.inst     0.001348                       # mshr miss ratio for demand accesses (Ratio)
system.cpu.icache.demandMshrMissRate::total     0.001348                       # mshr miss ratio for demand accesses (Ratio)
system.cpu.icache.overallMshrMissRate::cpu.inst     0.001348                       # mshr miss ratio for overall accesses (Ratio)
system.cpu.icache.overallMshrMissRate::total     0.001348                       # mshr miss ratio for overall accesses (Ratio)
system.cpu.icache.demandAvgMshrMissLatency::cpu.inst 79030.769231                       # average overall mshr miss latency ((Tick/Count))
system.cpu.icache.demandAvgMshrMissLatency::total 79030.769231                       # average overall mshr miss latency ((Tick/Count))
system.cpu.icache.overallAvgMshrMissLatency::cpu.inst 79030.769231                       # average overall mshr miss latency ((Tick/Count))
system.cpu.icache.overallAvgMshrMissLatency::total 79030.769231                       # average overall mshr miss latency ((Tick/Count))
system.cpu.icache.replacements                     66                       # number of replacements (Count)
system.cpu.icache.ReadReq.hits::cpu.inst        48138                       # number of ReadReq hits (Count)
system.cpu.icache.ReadReq.hits::total           48138                       # number of ReadReq hits (Count)
system.cpu.icache.ReadReq.misses::cpu.inst           70                       # number of ReadReq misses (Count)
system.cpu.icache.ReadReq.misses::total            70                       # number of ReadReq misses (Count)
system.cpu.icache.ReadReq.missLatency::cpu.inst      5496000                       # number of ReadReq miss ticks (Tick)
system.cpu.icache.ReadReq.missLatency::total      5496000                       # number of ReadReq miss ticks (Tick)
system.cpu.icache.ReadReq.accesses::cpu.inst        48208                       # number of ReadReq accesses(hits+misses) (Count)
system.cpu.icache.ReadReq.accesses::total        48208                       # number of ReadReq accesses(hits+misses) (Count)
system.cpu.icache.ReadReq.missRate::cpu.inst     0.001452                       # miss rate for ReadReq accesses (Ratio)
system.cpu.icache.ReadReq.missRate::total     0.001452                       # miss rate for ReadReq accesses (Ratio)
system.cpu.icache.ReadReq.avgMissLatency::cpu.inst 78514.285714                       # average ReadReq miss latency ((Tick/Count))
system.cpu.icache.ReadReq.avgMissLatency::total 78514.285714                       # average ReadReq miss latency ((Tick/Count))
system.cpu.icache.ReadReq.mshrHits::cpu.inst            5                       # number of ReadReq MSHR hits (Count)
system.cpu.icache.ReadReq.mshrHits::total            5                       # number of ReadReq MSHR hits (Count)
system.cpu.icache.ReadReq.mshrMisses::cpu.inst           65                       # number of ReadReq MSHR misses (Count)
system.cpu.icache.ReadReq.mshrMisses::total           65                       # number of ReadReq MSHR misses (Count)
system.cpu.icache.ReadReq.mshrMissLatency::cpu.inst      5137000                       # number of ReadReq MSHR miss ticks (Tick)
system.cpu.icache.ReadReq.mshrMissLatency::total      5137000                       # number of ReadReq MSHR miss ticks (Tick)
system.cpu.icache.ReadReq.mshrMissRate::cpu.inst     0.001348                       # mshr miss rate for ReadReq accesses (Ratio)
system.cpu.icache.ReadReq.mshrMissRate::total     0.001348                       # mshr miss rate for ReadReq accesses (Ratio)
system.cpu.icache.ReadReq.avgMshrMissLatency::cpu.inst 79030.769231                       # average ReadReq mshr miss latency ((Tick/Count))
system.cpu.icache.ReadReq.avgMshrMissLatency::total 79030.769231                       # average ReadReq mshr miss latency ((Tick/Count))
system.cpu.icache.power_state.pwrStateResidencyTicks::UNDEFINED   1257036000                       # Cumulative time (in ticks) in various power states (Tick)
system.cpu.icache.tags.tagsInUse                  256                       # Average ticks per tags in use ((Tick/Count))
system.cpu.icache.tags.totalRefs                 3680                       # Total number of references to valid blocks. (Count)
system.cpu.icache.tags.sampledRefs                 66                       # Sample count of references to valid blocks. (Count)
system.cpu.icache.tags.avgRefs              55.757576                       # Average number of references to valid blocks. ((Count/Count))
system.cpu.icache.tags.warmupTick                   0                       # The tick when the warmup percentage was hit. (Tick)
system.cpu.icache.tags.occupancies::cpu.inst          256                       # Average occupied blocks per tick, per requestor ((Count/Tick))
system.cpu.icache.tags.avgOccs::cpu.inst            1                       # Average percentage of cache occupancy ((Ratio/Tick))
system.cpu.icache.tags.avgOccs::total               1                       # Average percentage of cache occupancy ((Ratio/Tick))
system.cpu.icache.tags.occupanciesTaskId::1024          256                       # Occupied blocks per task id (Count)
system.cpu.icache.tags.ageTaskId_1024::0            1                       # Occupied blocks per task id, per block age (Count)
system.cpu.icache.tags.ageTaskId_1024::1            1                       # Occupied blocks per task id, per block age (Count)
system.cpu.icache.tags.ageTaskId_1024::2          236                       # Occupied blocks per task id, per block age (Count)
system.cpu.icache.tags.ageTaskId_1024::3           18                       # Occupied blocks per task id, per block age (Count)
system.cpu.icache.tags.ratioOccsTaskId::1024            1                       # Ratio of occupied blocks and all blocks, per task id (Ratio)
system.cpu.icache.tags.tagAccesses             192898                       # Number of tag accesses (Count)
system.cpu.icache.tags.dataAccesses            192898                       # Number of data accesses (Count)
system.cpu.icache.tags.power_state.pwrStateResidencyTicks::UNDEFINED   1257036000                       # Cumulative time (in ticks) in various power states (Tick)
system.cpu.iew.idleCycles                           0                       # Number of cycles IEW is idle (Cycle)
system.cpu.iew.squashCycles                       174                       # Number of cycles IEW is squashing (Cycle)
system.cpu.iew.blockCycles                       6661                       # Number of cycles IEW is blocking (Cycle)
system.cpu.iew.unblockCycles                    47479                       # Number of cycles IEW is unblocking (Cycle)
system.cpu.iew.dispatchedInsts                1064926                       # Number of instructions dispatched to IQ (Count)
system.cpu.iew.dispSquashedInsts                   18                       # Number of squashed instructions skipped by dispatch (Count)
system.cpu.iew.dispLoadInsts                   276509                       # Number of dispatched load instructions (Count)
system.cpu.iew.dispStoreInsts                  101168                       # Number of dispatched store instructions (Count)
system.cpu.iew.dispNonSpecInsts                     1                       # Number of dispatched non-speculative instructions (Count)
system.cpu.iew.iqFullEvents                         6                       # Number of times the IQ has become full, causing a stall (Count)
system.cpu.iew.lsqFullEvents                    47384                       # Number of times the LSQ has become full, causing a stall (Count)
system.cpu.iew.memOrderViolationEvents            106                       # Number of memory order violations (Count)
system.cpu.iew.predictedTakenIncorrect             62                       # Number of branches that were predicted taken incorrectly (Count)
system.cpu.iew.predictedNotTakenIncorrect            7                       # Number of branches that were predicted not taken incorrectly (Count)
system.cpu.iew.branchMispredicts                   69                       # Number of branch mispredicts detected at execute (Count)
system.cpu.iew.instsToCommit                  1061638                       # Cumulative count of insts sent to commit (Count)
system.cpu.iew.writebackCount                 1061310                       # Cumulative count of insts written-back (Count)
system.cpu.iew.producerInst                    569280                       # Number of instructions producing a value (Count)
system.cpu.iew.consumerInst                   1065407                       # Number of instructions consuming a value (Count)
system.cpu.iew.wbRate                        2.029902                       # Insts written-back per cycle ((Count/Cycle))
system.cpu.iew.wbFanout                      0.534331                       # Average fanout of values written-back ((Count/Count))
system.cpu.lsq0.forwLoads                       26989                       # Number of loads that had data forwarded from stores (Count)
system.cpu.lsq0.squashedLoads                    2364                       # Number of loads squashed (Count)
system.cpu.lsq0.ignoredResponses                    2                       # Number of memory responses ignored because the instruction is squashed (Count)
system.cpu.lsq0.memOrderViolation                 106                       # Number of memory ordering violations (Count)
system.cpu.lsq0.squashedStores                    856                       # Number of stores squashed (Count)
system.cpu.lsq0.rescheduledLoads                 1095                       # Number of loads that were rescheduled (Count)
system.cpu.lsq0.blockedByCache                    123                       # Number of times an access to memory failed due to the cache being blocked (Count)
system.cpu.lsq0.loadToUse::samples             274147                       # Distribution of cycle latency between the first time a load is issued and its completion (Unspecified)
system.cpu.lsq0.loadToUse::mean              9.193571                       # Distribution of cycle latency between the first time a load is issued and its completion (Unspecified)
system.cpu.lsq0.loadToUse::stdev            28.802573                       # Distribution of cycle latency between the first time a load is issued and its completion (Unspecified)
system.cpu.lsq0.loadToUse::0-9                 255253     93.11%     93.11% # Distribution of cycle latency between the first time a load is issued and its completion (Unspecified)
system.cpu.lsq0.loadToUse::10-19                  963      0.35%     93.46% # Distribution of cycle latency between the first time a load is issued and its completion (Unspecified)
system.cpu.lsq0.loadToUse::20-29                 8013      2.92%     96.38% # Distribution of cycle latency between the first time a load is issued and its completion (Unspecified)
system.cpu.lsq0.loadToUse::30-39                  147      0.05%     96.44% # Distribution of cycle latency between the first time a load is issued and its completion (Unspecified)
system.cpu.lsq0.loadToUse::40-49                   13      0.00%     96.44% # Distribution of cycle latency between the first time a load is issued and its completion (Unspecified)
system.cpu.lsq0.loadToUse::50-59                  215      0.08%     96.52% # Distribution of cycle latency between the first time a load is issued and its completion (Unspecified)
system.cpu.lsq0.loadToUse::60-69                   25      0.01%     96.53% # Distribution of cycle latency between the first time a load is issued and its completion (Unspecified)
system.cpu.lsq0.loadToUse::70-79                  244      0.09%     96.62% # Distribution of cycle latency between the first time a load is issued and its completion (Unspecified)
system.cpu.lsq0.loadToUse::80-89                   19      0.01%     96.62% # Distribution of cycle latency between the first time a load is issued and its completion (Unspecified)
system.cpu.lsq0.loadToUse::90-99                   27      0.01%     96.63% # Distribution of cycle latency between the first time a load is issued and its completion (Unspecified)
system.cpu.lsq0.loadToUse::100-109                 71      0.03%     96.66% # Distribution of cycle latency between the first time a load is issued and its completion (Unspecified)
system.cpu.lsq0.loadToUse::110-119                272      0.10%     96.76% # Distribution of cycle latency between the first time a load is issued and its completion (Unspecified)
system.cpu.lsq0.loadToUse::120-129                129      0.05%     96.81% # Distribution of cycle latency between the first time a load is issued and its completion (Unspecified)
system.cpu.lsq0.loadToUse::130-139               3532      1.29%     98.09% # Distribution of cycle latency between the first time a load is issued and its completion (Unspecified)
system.cpu.lsq0.loadToUse::140-149               3893      1.42%     99.51% # Distribution of cycle latency between the first time a load is issued and its completion (Unspecified)
system.cpu.lsq0.loadToUse::150-159                185      0.07%     99.58% # Distribution of cycle latency between the first time a load is issued and its completion (Unspecified)
system.cpu.lsq0.loadToUse::160-169                437      0.16%     99.74% # Distribution of cycle latency between the first time a load is issued and its completion (Unspecified)
system.cpu.lsq0.loadToUse::170-179                347      0.13%     99.87% # Distribution of cycle latency between the first time a load is issued and its completion (Unspecified)
system.cpu.lsq0.loadToUse::180-189                 35      0.01%     99.88% # Distribution of cycle latency between the first time a load is issued and its completion (Unspecified)
system.cpu.lsq0.loadToUse::190-199                 23      0.01%     99.89% # Distribution of cycle latency between the first time a load is issued and its completion (Unspecified)
system.cpu.lsq0.loadToUse::200-209                 86      0.03%     99.92% # Distribution of cycle latency between the first time a load is issued and its completion (Unspecified)
system.cpu.lsq0.loadToUse::210-219                 16      0.01%     99.93% # Distribution of cycle latency between the first time a load is issued and its completion (Unspecified)
system.cpu.lsq0.loadToUse::220-229                 11      0.00%     99.93% # Distribution of cycle latency between the first time a load is issued and its completion (Unspecified)
system.cpu.lsq0.loadToUse::230-239                  4      0.00%     99.93% # Distribution of cycle latency between the first time a load is issued and its completion (Unspecified)
system.cpu.lsq0.loadToUse::260-269                  6      0.00%     99.93% # Distribution of cycle latency between the first time a load is issued and its completion (Unspecified)
system.cpu.lsq0.loadToUse::270-279                  2      0.00%     99.93% # Distribution of cycle latency between the first time a load is issued and its completion (Unspecified)
system.cpu.lsq0.loadToUse::280-289                  4      0.00%     99.94% # Distribution of cycle latency between the first time a load is issued and its completion (Unspecified)
system.cpu.lsq0.loadToUse::290-299                 10      0.00%     99.94% # Distribution of cycle latency between the first time a load is issued and its completion (Unspecified)
system.cpu.lsq0.loadToUse::overflows              165      0.06%    100.00% # Distribution of cycle latency between the first time a load is issued and its completion (Unspecified)
system.cpu.lsq0.loadToUse::min_value                2                       # Distribution of cycle latency between the first time a load is issued and its completion (Unspecified)
system.cpu.lsq0.loadToUse::max_value              716                       # Distribution of cycle latency between the first time a load is issued and its completion (Unspecified)
system.cpu.lsq0.loadToUse::total               274147                       # Distribution of cycle latency between the first time a load is issued and its completion (Unspecified)
system.cpu.mmu.alignFaults                          0                       # Number of MMU faults due to alignment restrictions (Count)
system.cpu.mmu.prefetchFaults                       0                       # Number of MMU faults due to prefetch (Count)
system.cpu.mmu.domainFaults                         0                       # Number of MMU faults due to domain restrictions (Count)
system.cpu.mmu.permsFaults                          0                       # Number of MMU faults due to permissions restrictions (Count)
system.cpu.mmu.dtb.readHits                         0                       # Read hits (Count)
system.cpu.mmu.dtb.readMisses                       0                       # Read misses (Count)
[...]
system.mem_ctrls.dram.perBankWrBursts::7            7                       # Per bank write bursts (Count)
system.mem_ctrls.dram.perBankWrBursts::8           10                       # Per bank write bursts (Count)
system.mem_ctrls.dram.perBankWrBursts::9           14                       # Per bank write bursts (Count)
system.mem_ctrls.dram.perBankWrBursts::10            0                       # Per bank write bursts (Count)
system.mem_ctrls.dram.perBankWrBursts::11            0                       # Per bank write bursts (Count)
system.mem_ctrls.dram.perBankWrBursts::12            0                       # Per bank write bursts (Count)
system.mem_ctrls.dram.perBankWrBursts::13           20                       # Per bank write bursts (Count)
system.mem_ctrls.dram.perBankWrBursts::14            6                       # Per bank write bursts (Count)
system.mem_ctrls.dram.perBankWrBursts::15            9                       # Per bank write bursts (Count)
system.mem_ctrls.dram.totQLat                 7794750                       # Total ticks spent queuing (Tick)
system.mem_ctrls.dram.totBusLat               2335000                       # Total ticks spent in databus transfers (Tick)
system.mem_ctrls.dram.totMemAccLat           16551000                       # Total ticks spent from burst creation until serviced by the DRAM (Tick)
system.mem_ctrls.dram.avgQLat                16691.11                       # Average queueing delay per DRAM burst ((Tick/Count))
system.mem_ctrls.dram.avgBusLat               5000.00                       # Average bus latency per DRAM burst ((Tick/Count))
system.mem_ctrls.dram.avgMemAccLat           35441.11                       # Average memory access latency per DRAM burst ((Tick/Count))
system.mem_ctrls.dram.readRowHits                 296                       # Number of row buffer hits during reads (Count)
system.mem_ctrls.dram.writeRowHits                 80                       # Number of row buffer hits during writes (Count)
system.mem_ctrls.dram.readRowHitRate            63.38                       # Row buffer hit rate for reads (Ratio)
system.mem_ctrls.dram.writeRowHitRate           83.33                       # Row buffer hit rate for writes (Ratio)
system.mem_ctrls.dram.bytesPerActivate::samples          177                       # Bytes accessed per row activation (Byte)
system.mem_ctrls.dram.bytesPerActivate::mean   193.807910                       # Bytes accessed per row activation (Byte)
system.mem_ctrls.dram.bytesPerActivate::gmean   131.096694                       # Bytes accessed per row activation (Byte)
system.mem_ctrls.dram.bytesPerActivate::stdev   203.467183                       # Bytes accessed per row activation (Byte)
system.mem_ctrls.dram.bytesPerActivate::0-127           85     48.02%     48.02% # Bytes accessed per row activation (Byte)
system.mem_ctrls.dram.bytesPerActivate::128-255           48     27.12%     75.14% # Bytes accessed per row activation (Byte)
system.mem_ctrls.dram.bytesPerActivate::256-383           13      7.34%     82.49% # Bytes accessed per row activation (Byte)
system.mem_ctrls.dram.bytesPerActivate::384-511           11      6.21%     88.70% # Bytes accessed per row activation (Byte)
system.mem_ctrls.dram.bytesPerActivate::512-639            9      5.08%     93.79% # Bytes accessed per row activation (Byte)
system.mem_ctrls.dram.bytesPerActivate::640-767            6      3.39%     97.18% # Bytes accessed per row activation (Byte)
system.mem_ctrls.dram.bytesPerActivate::768-895            1      0.56%     97.74% # Bytes accessed per row activation (Byte)
system.mem_ctrls.dram.bytesPerActivate::896-1023            2      1.13%     98.87% # Bytes accessed per row activation (Byte)
system.mem_ctrls.dram.bytesPerActivate::1024-1151            2      1.13%    100.00% # Bytes accessed per row activation (Byte)
system.mem_ctrls.dram.bytesPerActivate::total          177                       # Bytes accessed per row activation (Byte)
system.mem_ctrls.dram.bytesRead                 29888                       # Total bytes read (Byte)
system.mem_ctrls.dram.bytesWritten               6144                       # Total bytes written (Byte)
system.mem_ctrls.dram.avgRdBW             1227.786222                       # Average DRAM read bandwidth in MiBytes/s ((Byte/Second))
system.mem_ctrls.dram.avgWrBW              252.392885                       # Average DRAM write bandwidth in MiBytes/s ((Byte/Second))
system.mem_ctrls.dram.peakBW                 12800.00                       # Theoretical peak bandwidth in MiByte/s ((Byte/Second))
system.mem_ctrls.dram.busUtil                   11.56                       # Data bus utilization in percentage (Ratio)
system.mem_ctrls.dram.busUtilRead                9.59                       # Data bus utilization in percentage for reads (Ratio)
system.mem_ctrls.dram.busUtilWrite               1.97                       # Data bus utilization in percentage for writes (Ratio)
system.mem_ctrls.dram.pageHitRate               66.79                       # Row buffer hit rate, read and write combined (Ratio)
system.mem_ctrls.dram.power_state.pwrStateResidencyTicks::UNDEFINED     24343000                       # Cumulative time (in ticks) in various power states (Tick)
system.mem_ctrls.dram.rank0.actEnergy          671160                       # Energy for activate commands per rank (pJ) (Joule)
system.mem_ctrls.dram.rank0.preEnergy          341550                       # Energy for precharge commands per rank (pJ) (Joule)
system.mem_ctrls.dram.rank0.readEnergy        1542240                       # Energy for read commands per rank (pJ) (Joule)
system.mem_ctrls.dram.rank0.writeEnergy        193140                       # Energy for write commands per rank (pJ) (Joule)
system.mem_ctrls.dram.rank0.refreshEnergy 1843920.000000                       # Energy for refresh commands per rank (pJ) (Joule)
system.mem_ctrls.dram.rank0.actBackEnergy     10872180                       # Energy for active background per rank (pJ) (Joule)
system.mem_ctrls.dram.rank0.preBackEnergy       192480                       # Energy for precharge background per rank (pJ) (Joule)
system.mem_ctrls.dram.rank0.actPowerDownEnergy            0                       # Energy for active power-down per rank (pJ) (Joule)
system.mem_ctrls.dram.rank0.prePowerDownEnergy            0                       # Energy for precharge power-down per rank (pJ) (Joule)
system.mem_ctrls.dram.rank0.selfRefreshEnergy            0                       # Energy for self refresh per rank (pJ) (Joule)
system.mem_ctrls.dram.rank0.totalEnergy      15656670                       # Total energy per rank (pJ) (Joule)
system.mem_ctrls.dram.rank0.averagePower   643.169289                       # Core power per rank (mW) (Watt)
system.mem_ctrls.dram.rank0.totalIdleTime            0                       # Total Idle time Per DRAM Rank (Tick)
system.mem_ctrls.dram.rank0.pwrStateTime::IDLE       404750                       # Time in different power states (Tick)
system.mem_ctrls.dram.rank0.pwrStateTime::REF       780000                       # Time in different power states (Tick)
system.mem_ctrls.dram.rank0.pwrStateTime::SREF            0                       # Time in different power states (Tick)
system.mem_ctrls.dram.rank0.pwrStateTime::PRE_PDN            0                       # Time in different power states (Tick)
system.mem_ctrls.dram.rank0.pwrStateTime::ACT     23158250                       # Time in different power states (Tick)
system.mem_ctrls.dram.rank0.pwrStateTime::ACT_PDN            0                       # Time in different power states (Tick)
system.mem_ctrls.dram.rank1.actEnergy          664020                       # Energy for activate commands per rank (pJ) (Joule)
system.mem_ctrls.dram.rank1.preEnergy          330165                       # Energy for precharge commands per rank (pJ) (Joule)
system.mem_ctrls.dram.rank1.readEnergy        1792140                       # Energy for read commands per rank (pJ) (Joule)
system.mem_ctrls.dram.rank1.writeEnergy        307980                       # Energy for write commands per rank (pJ) (Joule)
system.mem_ctrls.dram.rank1.refreshEnergy 1843920.000000                       # Energy for refresh commands per rank (pJ) (Joule)
system.mem_ctrls.dram.rank1.actBackEnergy     11032920                       # Energy for active background per rank (pJ) (Joule)
system.mem_ctrls.dram.rank1.preBackEnergy        57120                       # Energy for precharge background per rank (pJ) (Joule)
system.mem_ctrls.dram.rank1.actPowerDownEnergy            0                       # Energy for active power-down per rank (pJ) (Joule)
system.mem_ctrls.dram.rank1.prePowerDownEnergy            0                       # Energy for precharge power-down per rank (pJ) (Joule)
system.mem_ctrls.dram.rank1.selfRefreshEnergy            0                       # Energy for self refresh per rank (pJ) (Joule)
system.mem_ctrls.dram.rank1.totalEnergy      16028265                       # Total energy per rank (pJ) (Joule)
system.mem_ctrls.dram.rank1.averagePower   658.434252                       # Core power per rank (mW) (Watt)
system.mem_ctrls.dram.rank1.totalIdleTime            0                       # Total Idle time Per DRAM Rank (Tick)
system.mem_ctrls.dram.rank1.pwrStateTime::IDLE        52500                       # Time in different power states (Tick)
system.mem_ctrls.dram.rank1.pwrStateTime::REF       780000                       # Time in different power states (Tick)
system.mem_ctrls.dram.rank1.pwrStateTime::SREF            0                       # Time in different power states (Tick)
system.mem_ctrls.dram.rank1.pwrStateTime::PRE_PDN            0                       # Time in different power states (Tick)
system.mem_ctrls.dram.rank1.pwrStateTime::ACT     23510500                       # Time in different power states (Tick)
system.mem_ctrls.dram.rank1.pwrStateTime::ACT_PDN            0                       # Time in different power states (Tick)
system.mem_ctrls.power_state.pwrStateResidencyTicks::UNDEFINED     24343000                       # Cumulative time (in ticks) in various power states (Tick)
system.membus.transDist::ReadResp                 469                       # Transaction distribution (Count)
system.membus.transDist::WritebackDirty           103                       # Transaction distribution (Count)
system.membus.transDist::CleanEvict               556                       # Transaction distribution (Count)
system.membus.transDist::ReadExReq                 11                       # Transaction distribution (Count)
system.membus.transDist::ReadExResp                11                       # Transaction distribution (Count)
system.membus.transDist::ReadSharedReq            469                       # Transaction distribution (Count)
system.membus.pktCount_system.l2.mem_side_port::system.mem_ctrls.port         1619                       # Packet count per connected requestor and responder (Count)
system.membus.pktCount::total                    1619                       # Packet count per connected requestor and responder (Count)
system.membus.pktSize_system.l2.mem_side_port::system.mem_ctrls.port        37312                       # Cumulative packet size per connected requestor and responder (Byte)
system.membus.pktSize::total                    37312                       # Cumulative packet size per connected requestor and responder (Byte)
system.membus.snoops                                0                       # Total snoops (Count)
system.membus.snoopTraffic                          0                       # Total snoop traffic (Byte)
system.membus.snoopFanout::samples                480                       # Request fanout histogram (Count)
system.membus.snoopFanout::mean                     0                       # Request fanout histogram (Count)
system.membus.snoopFanout::stdev                    0                       # Request fanout histogram (Count)
system.membus.snoopFanout::underflows               0      0.00%      0.00% # Request fanout histogram (Count)
system.membus.snoopFanout::0                      480    100.00%    100.00% # Request fanout histogram (Count)
system.membus.snoopFanout::1                        0      0.00%    100.00% # Request fanout histogram (Count)
system.membus.snoopFanout::overflows                0      0.00%    100.00% # Request fanout histogram (Count)
system.membus.snoopFanout::min_value                0                       # Request fanout histogram (Count)
system.membus.snoopFanout::max_value                0                       # Request fanout histogram (Count)
system.membus.snoopFanout::total                  480                       # Request fanout histogram (Count)
system.membus.power_state.pwrStateResidencyTicks::UNDEFINED     24343000                       # Cumulative time (in ticks) in various power states (Tick)
system.membus.reqLayer0.occupancy             1664000                       # Layer occupancy (ticks) (Tick)
system.membus.reqLayer0.utilization               0.1                       # Layer utilization (Ratio)
system.membus.respLayer1.occupancy            2573500                       # Layer occupancy (ticks) (Tick)
system.membus.respLayer1.utilization              0.1                       # Layer utilization (Ratio)
system.membus.snoop_filter.totRequests           1139                       # Total number of requests made to the snoop filter. (Count)
system.membus.snoop_filter.hitSingleRequests          659                       # Number of requests hitting in the snoop filter with a single holder of the requested data. (Count)
system.membus.snoop_filter.hitMultiRequests            0                       # Number of requests hitting in the snoop filter with multiple (>1) holders of the requested data. (Count)
system.membus.snoop_filter.totSnoops                0                       # Total number of snoops made to the snoop filter. (Count)
system.membus.snoop_filter.hitSingleSnoops            0                       # Number of snoops hitting in the snoop filter with a single holder of the requested data. (Count)
system.membus.snoop_filter.hitMultiSnoops            0                       # Number of snoops hitting in the snoop filter with multiple (>1) holders of the requested data. (Count)
system.tol2bus.transDist::ReadResp                549                       # Transaction distribution (Count)
system.tol2bus.transDist::WritebackDirty          114                       # Transaction distribution (Count)
system.tol2bus.transDist::WritebackClean          232                       # Transaction distribution (Count)
system.tol2bus.transDist::CleanEvict              889                       # Transaction distribution (Count)
system.tol2bus.transDist::ReadExReq                23                       # Transaction distribution (Count)
system.tol2bus.transDist::ReadExResp               23                       # Transaction distribution (Count)
system.tol2bus.transDist::ReadCleanReq            233                       # Transaction distribution (Count)
system.tol2bus.transDist::ReadSharedReq           317                       # Transaction distribution (Count)
system.tol2bus.pktCount_system.cpu.icache.mem_side_port::system.l2.cpu_side_port          697                       # Packet count per connected requestor and responder (Count)
system.tol2bus.pktCount_system.cpu.dcache.mem_side_port::system.l2.cpu_side_port         1020                       # Packet count per connected requestor and responder (Count)
system.tol2bus.pktCount::total                   1717                       # Packet count per connected requestor and responder (Count)
system.tol2bus.pktSize_system.cpu.icache.mem_side_port::system.l2.cpu_side_port        29696                       # Cumulative packet size per connected requestor and responder (Byte)
system.tol2bus.pktSize_system.cpu.dcache.mem_side_port::system.l2.cpu_side_port        22464                       # Cumulative packet size per connected requestor and responder (Byte)
system.tol2bus.pktSize::total                   52160                       # Cumulative packet size per connected requestor and responder (Byte)
system.tol2bus.snoops                             663                       # Total snoops (Count)
system.tol2bus.snoopTraffic                      6592                       # Total snoop traffic (Byte)
system.tol2bus.snoopFanout::samples              1236                       # Request fanout histogram (Count)
system.tol2bus.snoopFanout::mean             0.007282                       # Request fanout histogram (Count)
system.tol2bus.snoopFanout::stdev            0.085055                       # Request fanout histogram (Count)
system.tol2bus.snoopFanout::underflows              0      0.00%      0.00% # Request fanout histogram (Count)
system.tol2bus.snoopFanout::0                    1227     99.27%     99.27% # Request fanout histogram (Count)
system.tol2bus.snoopFanout::1                       9      0.73%    100.00% # Request fanout histogram (Count)
system.tol2bus.snoopFanout::2                       0      0.00%    100.00% # Request fanout histogram (Count)
system.tol2bus.snoopFanout::overflows               0      0.00%    100.00% # Request fanout histogram (Count)
system.tol2bus.snoopFanout::min_value               0                       # Request fanout histogram (Count)
system.tol2bus.snoopFanout::max_value               1                       # Request fanout histogram (Count)
system.tol2bus.snoopFanout::total                1236                       # Request fanout histogram (Count)
system.tol2bus.power_state.pwrStateResidencyTicks::UNDEFINED     24343000                       # Cumulative time (in ticks) in various power states (Tick)
system.tol2bus.reqLayer0.occupancy             815500                       # Layer occupancy (ticks) (Tick)
system.tol2bus.reqLayer0.utilization              0.0                       # Layer utilization (Ratio)
system.tol2bus.respLayer0.occupancy            348000                       # Layer occupancy (ticks) (Tick)
system.tol2bus.respLayer0.utilization             0.0                       # Layer utilization (Ratio)
system.tol2bus.respLayer1.occupancy            510000                       # Layer occupancy (ticks) (Tick)
system.tol2bus.respLayer1.utilization             0.0                       # Layer utilization (Ratio)
system.tol2bus.snoop_filter.totRequests          1145                       # Total number of requests made to the snoop filter. (Count)
system.tol2bus.snoop_filter.hitSingleRequests          572                       # Number of requests hitting in the snoop filter with a single holder of the requested data. (Count)
system.tol2bus.snoop_filter.hitMultiRequests            0                       # Number of requests hitting in the snoop filter with multiple (>1) holders of the requested data. (Count)
system.tol2bus.snoop_filter.totSnoops               9                       # Total number of snoops made to the snoop filter. (Count)
system.tol2bus.snoop_filter.hitSingleSnoops            9                       # Number of snoops hitting in the snoop filter with a single holder of the requested data. (Count)
system.tol2bus.snoop_filter.hitMultiSnoops            0                       # Number of snoops hitting in the snoop filter with multiple (>1) holders of the requested data. (Count)
system.voltage_domain.voltage                       1                       # Voltage in Volts (Volt)
system.workload.inst.arm                            0                       # number of arm instructions executed (Count)
system.workload.inst.quiesce                        0                       # number of quiesce instructions executed (Count)

---------- End Simulation Statistics   ----------
