
---------- Begin Simulation Statistics ----------
simSeconds                                   0.000227                       # Number of seconds simulated (Second)
simTicks                                    227384500                       # Number of ticks simulated (Tick)
finalTick                                  1223760500                       # Number of ticks from beginning of simulation (restored from checkpoints and never reset) (Tick)
simFreq                                  1000000000000                       # The number of ticks per simulated second ((Tick/Second))
hostSeconds                                      3.07                       # Real time elapsed on the host (Second)
hostTickRate                                 73949375                       # The number of ticks simulated per host second (ticks/s) ((Tick/Second))
hostMemory                                     681168                       # Number of bytes of host memory used (Byte)
simInsts                                      2247561                       # Number of instructions simulated (Count)
simOps                                        2836504                       # Number of ops (including micro ops) simulated (Count)
hostInstRate                                   730914                       # Simulator instruction rate (inst/s) ((Count/Second))
hostOpRate                                     922435                       # Simulator op (including micro ops) rate (op/s) ((Count/Second))
system.clk_domain.clock                          1000                       # Clock period in ticks (Tick)
system.cpu.numCycles                           454769                       # Number of cpu cycles simulated (Cycle)
system.cpu.numWorkItemsStarted                      0                       # Number of work items this cpu started (Count)
system.cpu.numWorkItemsCompleted                    0                       # Number of work items this cpu completed (Count)
system.cpu.instsAdded                          918376                       # Number of instructions added to the IQ (excludes non-spec) (Count)
system.cpu.nonSpecInstsAdded                        1                       # Number of non-speculative instructions added to the IQ (Count)
system.cpu.instsIssued                         916315                       # Number of instructions issued (Count)
system.cpu.squashedInstsIssued                     62                       # Number of squashed instructions issued (Count)
system.cpu.squashedInstsExamined                 8351                       # Number of squashed instructions iterated over during squash; mainly for profiling (Count)
system.cpu.squashedOperandsExamined             11743                       # Number of squashed operands that are examined and possibly removed from graph (Count)
system.cpu.numIssuedDist::samples              436614                       # Number of insts issued each cycle (Count)
system.cpu.numIssuedDist::mean               2.098684                       # Number of insts issued each cycle (Count)
system.cpu.numIssuedDist::stdev              2.911498                       # Number of insts issued each cycle (Count)
system.cpu.numIssuedDist::underflows                0      0.00%      0.00% # Number of insts issued each cycle (Count)
system.cpu.numIssuedDist::0                    257968     59.08%     59.08% # Number of insts issued each cycle (Count)
system.cpu.numIssuedDist::1                     12459      2.85%     61.94% # Number of insts issued each cycle (Count)
system.cpu.numIssuedDist::2                     19411      4.45%     66.38% # Number of insts issued each cycle (Count)
system.cpu.numIssuedDist::3                     15249      3.49%     69.88% # Number of insts issued each cycle (Count)
system.cpu.numIssuedDist::4                     24184      5.54%     75.41% # Number of insts issued each cycle (Count)
system.cpu.numIssuedDist::5                     22257      5.10%     80.51% # Number of insts issued each cycle (Count)
system.cpu.numIssuedDist::6                     24629      5.64%     86.15% # Number of insts issued each cycle (Count)
system.cpu.numIssuedDist::7                     20164      4.62%     90.77% # Number of insts issued each cycle (Count)
system.cpu.numIssuedDist::8                     40293      9.23%    100.00% # Number of insts issued each cycle (Count)
system.cpu.numIssuedDist::overflows                 0      0.00%    100.00% # Number of insts issued each cycle (Count)
system.cpu.numIssuedDist::min_value                 0                       # Number of insts issued each cycle (Count)
system.cpu.numIssuedDist::max_value                 8                       # Number of insts issued each cycle (Count)
system.cpu.numIssuedDist::total                436614                       # Number of insts issued each cycle (Count)
system.cpu.statFuBusy::No_OpClass                   0      0.00%      0.00% # attempts to use FU when none available (Count)
system.cpu.statFuBusy::IntAlu                      43      0.09%      0.09% # attempts to use FU when none available (Count)
system.cpu.statFuBusy::IntMult                      0      0.00%      0.09% # attempts to use FU when none available (Count)
system.cpu.statFuBusy::IntDiv                       0      0.00%      0.09% # attempts to use FU when none available (Count)
system.cpu.statFuBusy::FloatAdd                     0      0.00%      0.09% # attempts to use FU when none available (Count)
system.cpu.statFuBusy::FloatCmp                     0      0.00%      0.09% # attempts to use FU when none available (Count)
system.cpu.statFuBusy::FloatCvt                     0      0.00%      0.09% # attempts to use FU when none available (Count)
system.cpu.statFuBusy::FloatMult                    0      0.00%      0.09% # attempts to use FU when none available (Count)
system.cpu.statFuBusy::FloatMultAcc                 0      0.00%      0.09% # attempts to use FU when none available (Count)
system.cpu.statFuBusy::FloatDiv                     0      0.00%      0.09% # attempts to use FU when none available (Count)
system.cpu.statFuBusy::FloatMisc                    0      0.00%      0.09% # attempts to use FU when none available (Count)
system.cpu.statFuBusy::FloatSqrt                    0      0.00%      0.09% # attempts to use FU when none available (Count)
system.cpu.statFuBusy::SimdAdd                   7353     16.02%     16.12% # attempts to use FU when none available (Count)
system.cpu.statFuBusy::SimdAddAcc                   0      0.00%     16.12% # attempts to use FU when none available (Count)
system.cpu.statFuBusy::SimdAlu                  11494     25.05%     41.16% # attempts to use FU when none available (Count)
system.cpu.statFuBusy::SimdCmp                      0      0.00%     41.16% # attempts to use FU when none available (Count)
system.cpu.statFuBusy::SimdCvt                      0      0.00%     41.16% # attempts to use FU when none available (Count)
system.cpu.statFuBusy::SimdMisc                   794      1.73%     42.89% # attempts to use FU when none available (Count)
system.cpu.statFuBusy::SimdMult                     0      0.00%     42.89% # attempts to use FU when none available (Count)
system.cpu.statFuBusy::SimdMultAcc                  0      0.00%     42.89% # attempts to use FU when none available (Count)
system.cpu.statFuBusy::SimdShift                    0      0.00%     42.89% # attempts to use FU when none available (Count)
system.cpu.statFuBusy::SimdShiftAcc                 0      0.00%     42.89% # attempts to use FU when none available (Count)
system.cpu.statFuBusy::SimdDiv                      0      0.00%     42.89% # attempts to use FU when none available (Count)
system.cpu.statFuBusy::SimdSqrt                     0      0.00%     42.89% # attempts to use FU when none available (Count)
system.cpu.statFuBusy::SimdFloatAdd                 0      0.00%     42.89% # attempts to use FU when none available (Count)
system.cpu.statFuBusy::SimdFloatAlu                 0      0.00%     42.89% # attempts to use FU when none available (Count)
system.cpu.statFuBusy::SimdFloatCmp                 0      0.00%     42.89% # attempts to use FU when none available (Count)
system.cpu.statFuBusy::SimdFloatCvt                 0      0.00%     42.89% # attempts to use FU when none available (Count)
system.cpu.statFuBusy::SimdFloatDiv                 0      0.00%     42.89% # attempts to use FU when none available (Count)
system.cpu.statFuBusy::SimdFloatMisc                0      0.00%     42.89% # attempts to use FU when none available (Count)
system.cpu.statFuBusy::SimdFloatMult                0      0.00%     42.89% # attempts to use FU when none available (Count)
system.cpu.statFuBusy::SimdFloatMultAcc             0      0.00%     42.89% # attempts to use FU when none available (Count)
system.cpu.statFuBusy::SimdFloatSqrt                0      0.00%     42.89% # attempts to use FU when none available (Count)
system.cpu.statFuBusy::SimdReduceAdd                0      0.00%     42.89% # attempts to use FU when none available (Count)
system.cpu.statFuBusy::SimdReduceAlu                0      0.00%     42.89% # attempts to use FU when none available (Count)
system.cpu.statFuBusy::SimdReduceCmp                0      0.00%     42.89% # attempts to use FU when none available (Count)
system.cpu.statFuBusy::SimdFloatReduceAdd            0      0.00%     42.89% # attempts to use FU when none available (Count)
system.cpu.statFuBusy::SimdFloatReduceCmp            0      0.00%     42.89% # attempts to use FU when none available (Count)
system.cpu.statFuBusy::SimdAes                      0      0.00%     42.89% # attempts to use FU when none available (Count)
system.cpu.statFuBusy::SimdAesMix                   0      0.00%     42.89% # attempts to use FU when none available (Count)
system.cpu.statFuBusy::SimdSha1Hash                 0      0.00%     42.89% # attempts to use FU when none available (Count)
system.cpu.statFuBusy::SimdSha1Hash2                0      0.00%     42.89% # attempts to use FU when none available (Count)
system.cpu.statFuBusy::SimdSha256Hash               0      0.00%     42.89% # attempts to use FU when none available (Count)
system.cpu.statFuBusy::SimdSha256Hash2              0      0.00%     42.89% # attempts to use FU when none available (Count)
system.cpu.statFuBusy::SimdShaSigma2                0      0.00%     42.89% # attempts to use FU when none available (Count)
system.cpu.statFuBusy::SimdShaSigma3                0      0.00%     42.89% # attempts to use FU when none available (Count)
system.cpu.statFuBusy::SimdPredAlu                  0      0.00%     42.89% # attempts to use FU when none available (Count)
system.cpu.statFuBusy::MemRead                  24461     53.30%     96.19% # attempts to use FU when none available (Count)
system.cpu.statFuBusy::MemWrite                  1748      3.81%    100.00% # attempts to use FU when none available (Count)
system.cpu.statFuBusy::FloatMemRead                 0      0.00%    100.00% # attempts to use FU when none available (Count)
system.cpu.statFuBusy::FloatMemWrite                0      0.00%    100.00% # attempts to use FU when none available (Count)
system.cpu.statFuBusy::IprAccess                    0      0.00%    100.00% # attempts to use FU when none available (Count)
system.cpu.statFuBusy::InstPrefetch                 0      0.00%    100.00% # attempts to use FU when none available (Count)
system.cpu.statIssuedInstType_0::No_OpClass       124597     13.60%     13.60% # Number of instructions issued per FU type, per thread (Count)
system.cpu.statIssuedInstType_0::IntAlu        147724     16.12%     29.72% # Number of instructions issued per FU type, per thread (Count)
system.cpu.statIssuedInstType_0::IntMult            0      0.00%     29.72% # Number of instructions issued per FU type, per thread (Count)
system.cpu.statIssuedInstType_0::IntDiv             0      0.00%     29.72% # Number of instructions issued per FU type, per thread (Count)
system.cpu.statIssuedInstType_0::FloatAdd            0      0.00%     29.72% # Number of instructions issued per FU type, per thread (Count)
system.cpu.statIssuedInstType_0::FloatCmp            0      0.00%     29.72% # Number of instructions issued per FU type, per thread (Count)
system.cpu.statIssuedInstType_0::FloatCvt            0      0.00%     29.72% # Number of instructions issued per FU type, per thread (Count)
system.cpu.statIssuedInstType_0::FloatMult            0      0.00%     29.72% # Number of instructions issued per FU type, per thread (Count)
system.cpu.statIssuedInstType_0::FloatMultAcc            0      0.00%     29.72% # Number of instructions issued per FU type, per thread (Count)
system.cpu.statIssuedInstType_0::FloatDiv            0      0.00%     29.72% # Number of instructions issued per FU type, per thread (Count)
system.cpu.statIssuedInstType_0::FloatMisc            0      0.00%     29.72% # Number of instructions issued per FU type, per thread (Count)
system.cpu.statIssuedInstType_0::FloatSqrt            0      0.00%     29.72% # Number of instructions issued per FU type, per thread (Count)
system.cpu.statIssuedInstType_0::SimdAdd        94292     10.29%     40.01% # Number of instructions issued per FU type, per thread (Count)
system.cpu.statIssuedInstType_0::SimdAddAcc            0      0.00%     40.01% # Number of instructions issued per FU type, per thread (Count)
system.cpu.statIssuedInstType_0::SimdAlu       198550     21.67%     61.68% # Number of instructions issued per FU type, per thread (Count)
system.cpu.statIssuedInstType_0::SimdCmp            0      0.00%     61.68% # Number of instructions issued per FU type, per thread (Count)
system.cpu.statIssuedInstType_0::SimdCvt            0      0.00%     61.68% # Number of instructions issued per FU type, per thread (Count)
system.cpu.statIssuedInstType_0::SimdMisc         3608      0.39%     62.07% # Number of instructions issued per FU type, per thread (Count)
system.cpu.statIssuedInstType_0::SimdMult            0      0.00%     62.07% # Number of instructions issued per FU type, per thread (Count)
system.cpu.statIssuedInstType_0::SimdMultAcc            0      0.00%     62.07% # Number of instructions issued per FU type, per thread (Count)
system.cpu.statIssuedInstType_0::SimdShift            0      0.00%     62.07% # Number of instructions issued per FU type, per thread (Count)
system.cpu.statIssuedInstType_0::SimdShiftAcc            0      0.00%     62.07% # Number of instructions issued per FU type, per thread (Count)
system.cpu.statIssuedInstType_0::SimdDiv            0      0.00%     62.07% # Number of instructions issued per FU type, per thread (Count)
system.cpu.statIssuedInstType_0::SimdSqrt            0      0.00%     62.07% # Number of instructions issued per FU type, per thread (Count)
system.cpu.statIssuedInstType_0::SimdFloatAdd            0      0.00%     62.07% # Number of instructions issued per FU type, per thread (Count)
system.cpu.statIssuedInstType_0::SimdFloatAlu            0      0.00%     62.07% # Number of instructions issued per FU type, per thread (Count)
system.cpu.statIssuedInstType_0::SimdFloatCmp            0      0.00%     62.07% # Number of instructions issued per FU type, per thread (Count)
system.cpu.statIssuedInstType_0::SimdFloatCvt            0      0.00%     62.07% # Number of instructions issued per FU type, per thread (Count)
system.cpu.statIssuedInstType_0::SimdFloatDiv            0      0.00%     62.07% # Number of instructions issued per FU type, per thread (Count)
system.cpu.statIssuedInstType_0::SimdFloatMisc            0      0.00%     62.07% # Number of instructions issued per FU type, per thread (Count)
system.cpu.statIssuedInstType_0::SimdFloatMult            0      0.00%     62.07% # Number of instructions issued per FU type, per thread (Count)
system.cpu.statIssuedInstType_0::SimdFloatMultAcc            0      0.00%     62.07% # Number of instructions issued per FU type, per thread (Count)
system.cpu.statIssuedInstType_0::SimdFloatSqrt            0      0.00%     62.07% # Number of instructions issued per FU type, per thread (Count)
system.cpu.statIssuedInstType_0::SimdReduceAdd            0      0.00%     62.07% # Number of instructions issued per FU type, per thread (Count)
system.cpu.statIssuedInstType_0::SimdReduceAlu            0      0.00%     62.07% # Number of instructions issued per FU type, per thread (Count)
system.cpu.statIssuedInstType_0::SimdReduceCmp            0      0.00%     62.07% # Number of instructions issued per FU type, per thread (Count)
system.cpu.statIssuedInstType_0::SimdFloatReduceAdd            0      0.00%     62.07% # Number of instructions issued per FU type, per thread (Count)
system.cpu.statIssuedInstType_0::SimdFloatReduceCmp            0      0.00%     62.07% # Number of instructions issued per FU type, per thread (Count)
system.cpu.statIssuedInstType_0::SimdAes            0      0.00%     62.07% # Number of instructions issued per FU type, per thread (Count)
system.cpu.statIssuedInstType_0::SimdAesMix            0      0.00%     62.07% # Number of instructions issued per FU type, per thread (Count)
system.cpu.statIssuedInstType_0::SimdSha1Hash            0      0.00%     62.07% # Number of instructions issued per FU type, per thread (Count)
system.cpu.statIssuedInstType_0::SimdSha1Hash2            0      0.00%     62.07% # Number of instructions issued per FU type, per thread (Count)
system.cpu.statIssuedInstType_0::SimdSha256Hash            0      0.00%     62.07% # Number of instructions issued per FU type, per thread (Count)
system.cpu.statIssuedInstType_0::SimdSha256Hash2            0      0.00%     62.07% # Number of instructions issued per FU type, per thread (Count)
system.cpu.statIssuedInstType_0::SimdShaSigma2            0      0.00%     62.07% # Number of instructions issued per FU type, per thread (Count)
system.cpu.statIssuedInstType_0::SimdShaSigma3            0      0.00%     62.07% # Number of instructions issued per FU type, per thread (Count)
system.cpu.statIssuedInstType_0::SimdPredAlu            0      0.00%     62.07% # Number of instructions issued per FU type, per thread (Count)
system.cpu.statIssuedInstType_0::MemRead       264250     28.84%     90.91% # Number of instructions issued per FU type, per thread (Count)
system.cpu.statIssuedInstType_0::MemWrite        83294      9.09%    100.00% # Number of instructions issued per FU type, per thread (Count)
system.cpu.statIssuedInstType_0::FloatMemRead            0      0.00%    100.00% # Number of instructions issued per FU type, per thread (Count)
system.cpu.statIssuedInstType_0::FloatMemWrite            0      0.00%    100.00% # Number of instructions issued per FU type, per thread (Count)
system.cpu.statIssuedInstType_0::IprAccess            0      0.00%    100.00% # Number of instructions issued per FU type, per thread (Count)
system.cpu.statIssuedInstType_0::InstPrefetch            0      0.00%    100.00% # Number of instructions issued per FU type, per thread (Count)
system.cpu.statIssuedInstType_0::total         916315                       # Number of instructions issued per FU type, per thread (Count)
system.cpu.issueRate                         2.014902                       # Inst issue rate ((Count/Cycle))
system.cpu.fuBusy                               45893                       # FU busy when requested (Count)
system.cpu.fuBusyRate                        0.050084                       # FU busy rate (busy events/executed inst) ((Count/Count))
system.cpu.intInstQueueReads                   796442                       # Number of integer instruction queue reads (Count)
system.cpu.intInstQueueWrites                  180298                       # Number of integer instruction queue writes (Count)
system.cpu.intInstQueueWakeupAccesses          178490                       # Number of integer instruction queue wakeup accesses (Count)
system.cpu.fpInstQueueReads                         0                       # Number of floating instruction queue reads (Count)
system.cpu.fpInstQueueWrites                        0                       # Number of floating instruction queue writes (Count)
system.cpu.fpInstQueueWakeupAccesses                0                       # Number of floating instruction queue wakeup accesses (Count)
system.cpu.vecInstQueueReads                  1518753                       # Number of vector instruction queue reads (Count)
system.cpu.vecInstQueueWrites                  746588                       # Number of vector instruction queue writes (Count)
system.cpu.vecInstQueueWakeupAccesses          736481                       # Number of vector instruction queue wakeup accesses (Count)
system.cpu.intAluAccesses                      181172                       # Number of integer alu accesses (Count)
system.cpu.fpAluAccesses                            0                       # Number of floating point alu accesses (Count)
system.cpu.vecAluAccesses                      656439                       # Number of vector alu accesses (Count)
system.cpu.numInsts                            916065                       # Number of executed instructions (Count)
system.cpu.numLoadInsts                        264125                       # Number of load instructions executed (Count)
system.cpu.numSquashedInsts                       246                       # Number of squashed instructions skipped in execute (Count)
system.cpu.numSwp                                   0                       # Number of swp insts executed (Count)
system.cpu.numNop                                  31                       # Number of nop insts executed (Count)
system.cpu.numRefs                             347398                       # Number of memory reference insts executed (Count)
system.cpu.numBranches                            368                       # Number of branches executed (Count)
system.cpu.numStoreInsts                        83273                       # Number of stores executed (Count)
system.cpu.numRate                           2.014352                       # Inst execution rate ((Count/Cycle))
system.cpu.timesIdled                             169                       # Number of times that the entire CPU went into an idle state and unscheduled itself (Count)
system.cpu.idleCycles                           18155                       # Total number of cycles that the CPU has spent unscheduled due to idling (Cycle)
system.cpu.committedInsts                      590039                       # Number of Instructions Simulated (Count)
system.cpu.committedOps                        909904                       # Number of Ops (including micro ops) Simulated (Count)
system.cpu.cpi                               0.770744                       # CPI: Cycles Per Instruction ((Cycle/Count))
system.cpu.totalCpi                          0.770744                       # CPI: Total CPI of All Threads ((Cycle/Count))
system.cpu.ipc                               1.297448                       # IPC: Instructions Per Cycle ((Count/Cycle))
system.cpu.totalIpc                          1.297448                       # IPC: Total IPC of All Threads ((Count/Cycle))
system.cpu.intRegfileReads                     548740                       # Number of integer regfile reads (Count)
system.cpu.intRegfileWrites                    161920                       # Number of integer regfile writes (Count)
system.cpu.vecRegfileReads                    1942903                       # number of vector regfile reads (Count)
system.cpu.ccRegfileReads                       50964                       # number of cc regfile reads (Count)
system.cpu.ccRegfileWrites                      50940                       # number of cc regfile writes (Count)
system.cpu.miscRegfileReads                   1226110                       # number of misc regfile reads (Count)
system.cpu.MemDepUnit__0.insertedLoads         264001                       # Number of loads inserted to the mem dependence unit. (Count)
system.cpu.MemDepUnit__0.insertedStores         83933                       # Number of stores inserted to the mem dependence unit. (Count)
system.cpu.MemDepUnit__0.conflictingLoads        18815                       # Number of conflicting loads. (Count)
system.cpu.MemDepUnit__0.conflictingStores        20117                       # Number of conflicting stores. (Count)
system.cpu.MemDepUnit__1.insertedLoads              0                       # Number of loads inserted to the mem dependence unit. (Count)
system.cpu.MemDepUnit__1.insertedStores             0                       # Number of stores inserted to the mem dependence unit. (Count)
system.cpu.MemDepUnit__1.conflictingLoads            0                       # Number of conflicting loads. (Count)
system.cpu.MemDepUnit__1.conflictingStores            0                       # Number of conflicting stores. (Count)
system.cpu.MemDepUnit__2.insertedLoads              0                       # Number of loads inserted to the mem dependence unit. (Count)
system.cpu.MemDepUnit__2.insertedStores             0                       # Number of stores inserted to the mem dependence unit. (Count)
system.cpu.MemDepUnit__2.conflictingLoads            0                       # Number of conflicting loads. (Count)
system.cpu.MemDepUnit__2.conflictingStores            0                       # Number of conflicting stores. (Count)
system.cpu.MemDepUnit__3.insertedLoads              0                       # Number of loads inserted to the mem dependence unit. (Count)
system.cpu.MemDepUnit__3.insertedStores             0                       # Number of stores inserted to the mem dependence unit. (Count)
system.cpu.MemDepUnit__3.conflictingLoads            0                       # Number of conflicting loads. (Count)
system.cpu.MemDepUnit__3.conflictingStores            0                       # Number of conflicting stores. (Count)
system.cpu.branchPred.lookups                     417                       # Number of BP lookups (Count)
system.cpu.branchPred.condPredicted               383                       # Number of conditional branches predicted (Count)
system.cpu.branchPred.condIncorrect                11                       # Number of conditional branches incorrect (Count)
system.cpu.branchPred.BTBLookups                  319                       # Number of BTB lookups (Count)
system.cpu.branchPred.BTBUpdates                    7                       # Number of BTB updates (Count)
system.cpu.branchPred.BTBHits                     315                       # Number of BTB hits (Count)
system.cpu.branchPred.BTBHitRatio            0.987461                       # BTB Hit Ratio (Ratio)
system.cpu.branchPred.RASUsed                       1                       # Number of times the RAS was used to get a target. (Count)
system.cpu.branchPred.RASIncorrect                  0                       # Number of incorrect RAS predictions. (Count)
system.cpu.branchPred.indirectLookups              26                       # Number of indirect predictor lookups. (Count)
system.cpu.branchPred.indirectHits                  0                       # Number of indirect target hits. (Count)
system.cpu.branchPred.indirectMisses               26                       # Number of indirect misses. (Count)
system.cpu.branchPred.indirectMispredicted            0                       # Number of mispredicted indirect branches. (Count)
system.cpu.commit.commitSquashedInsts            5705                       # The number of squashed insts skipped by commit (Count)
system.cpu.commit.commitNonSpecStalls               1                       # The number of times commit has been forced to stall to communicate backwards (Count)
system.cpu.commit.branchMispredicts                 9                       # The number of times a branch was mispredicted (Count)
system.cpu.commit.numCommittedDist::samples       435829                       # Number of insts commited each cycle (Count)
system.cpu.commit.numCommittedDist::mean     2.087826                       # Number of insts commited each cycle (Count)
system.cpu.commit.numCommittedDist::stdev     3.283172                       # Number of insts commited each cycle (Count)
system.cpu.commit.numCommittedDist::underflows            0      0.00%      0.00% # Number of insts commited each cycle (Count)
system.cpu.commit.numCommittedDist::0          284559     65.29%     65.29% # Number of insts commited each cycle (Count)
system.cpu.commit.numCommittedDist::1           20303      4.66%     69.95% # Number of insts commited each cycle (Count)
system.cpu.commit.numCommittedDist::2            8592      1.97%     71.92% # Number of insts commited each cycle (Count)
system.cpu.commit.numCommittedDist::3            9909      2.27%     74.19% # Number of insts commited each cycle (Count)
system.cpu.commit.numCommittedDist::4            5470      1.26%     75.45% # Number of insts commited each cycle (Count)
system.cpu.commit.numCommittedDist::5            5704      1.31%     76.76% # Number of insts commited each cycle (Count)
system.cpu.commit.numCommittedDist::6            5618      1.29%     78.05% # Number of insts commited each cycle (Count)
system.cpu.commit.numCommittedDist::7            6779      1.56%     79.60% # Number of insts commited each cycle (Count)
system.cpu.commit.numCommittedDist::8           88895     20.40%    100.00% # Number of insts commited each cycle (Count)
system.cpu.commit.numCommittedDist::overflows            0      0.00%    100.00% # Number of insts commited each cycle (Count)
system.cpu.commit.numCommittedDist::min_value            0                       # Number of insts commited each cycle (Count)
system.cpu.commit.numCommittedDist::max_value            8                       # Number of insts commited each cycle (Count)
system.cpu.commit.numCommittedDist::total       435829                       # Number of insts commited each cycle (Count)
system.cpu.commit.instsCommitted               590070                       # Number of instructions committed (Count)
system.cpu.commit.opsCommitted                 909935                       # Number of ops (including micro ops) committed (Count)
system.cpu.commit.memRefs                      344488                       # Number of memory references committed (Count)
system.cpu.commit.loads                        261465                       # Number of loads committed (Count)
system.cpu.commit.amos                              0                       # Number of atomic instructions committed (Count)
system.cpu.commit.membars                           0                       # Number of memory barriers committed (Count)
system.cpu.commit.branches                        365                       # Number of branches committed (Count)
system.cpu.commit.vectorInstructions           732484                       # Number of committed Vector instructions. (Count)
system.cpu.commit.floating                          0                       # Number of committed floating point instructions. (Count)
system.cpu.commit.integer                      494541                       # Number of committed integer instructions. (Count)
system.cpu.commit.functionCalls                     1                       # Number of function calls committed. (Count)
system.cpu.commit.committedInstType_0::No_OpClass       124210     13.65%     13.65% # Class of committed instruction (Count)
system.cpu.commit.committedInstType_0::IntAlu       146846     16.14%     29.79% # Class of committed instruction (Count)
system.cpu.commit.committedInstType_0::IntMult            1      0.00%     29.79% # Class of committed instruction (Count)
system.cpu.commit.committedInstType_0::IntDiv            0      0.00%     29.79% # Class of committed instruction (Count)
system.cpu.commit.committedInstType_0::FloatAdd            0      0.00%     29.79% # Class of committed instruction (Count)
system.cpu.commit.committedInstType_0::FloatCmp            0      0.00%     29.79% # Class of committed instruction (Count)
system.cpu.commit.committedInstType_0::FloatCvt            0      0.00%     29.79% # Class of committed instruction (Count)
system.cpu.commit.committedInstType_0::FloatMult            0      0.00%     29.79% # Class of committed instruction (Count)
system.cpu.commit.committedInstType_0::FloatMultAcc            0      0.00%     29.79% # Class of committed instruction (Count)
system.cpu.commit.committedInstType_0::FloatDiv            0      0.00%     29.79% # Class of committed instruction (Count)
system.cpu.commit.committedInstType_0::FloatMisc            0      0.00%     29.79% # Class of committed instruction (Count)
system.cpu.commit.committedInstType_0::FloatSqrt            0      0.00%     29.79% # Class of committed instruction (Count)
system.cpu.commit.committedInstType_0::SimdAdd        93600     10.29%     40.08% # Class of committed instruction (Count)
system.cpu.commit.committedInstType_0::SimdAddAcc            0      0.00%     40.08% # Class of committed instruction (Count)
system.cpu.commit.committedInstType_0::SimdAlu       197190     21.67%     61.75% # Class of committed instruction (Count)
system.cpu.commit.committedInstType_0::SimdCmp            0      0.00%     61.75% # Class of committed instruction (Count)
system.cpu.commit.committedInstType_0::SimdCvt            0      0.00%     61.75% # Class of committed instruction (Count)
system.cpu.commit.committedInstType_0::SimdMisc         3600      0.40%     62.14% # Class of committed instruction (Count)
system.cpu.commit.committedInstType_0::SimdMult            0      0.00%     62.14% # Class of committed instruction (Count)
system.cpu.commit.committedInstType_0::SimdMultAcc            0      0.00%     62.14% # Class of committed instruction (Count)
system.cpu.commit.committedInstType_0::SimdShift            0      0.00%     62.14% # Class of committed instruction (Count)
system.cpu.commit.committedInstType_0::SimdShiftAcc            0      0.00%     62.14% # Class of committed instruction (Count)
system.cpu.commit.committedInstType_0::SimdDiv            0      0.00%     62.14% # Class of committed instruction (Count)
system.cpu.commit.committedInstType_0::SimdSqrt            0      0.00%     62.14% # Class of committed instruction (Count)
system.cpu.commit.committedInstType_0::SimdFloatAdd            0      0.00%     62.14% # Class of committed instruction (Count)
system.cpu.commit.committedInstType_0::SimdFloatAlu            0      0.00%     62.14% # Class of committed instruction (Count)
system.cpu.commit.committedInstType_0::SimdFloatCmp            0      0.00%     62.14% # Class of committed instruction (Count)
system.cpu.commit.committedInstType_0::SimdFloatCvt            0      0.00%     62.14% # Class of committed instruction (Count)
system.cpu.commit.committedInstType_0::SimdFloatDiv            0      0.00%     62.14% # Class of committed instruction (Count)
system.cpu.commit.committedInstType_0::SimdFloatMisc            0      0.00%     62.14% # Class of committed instruction (Count)
system.cpu.commit.committedInstType_0::SimdFloatMult            0      0.00%     62.14% # Class of committed instruction (Count)
system.cpu.commit.committedInstType_0::SimdFloatMultAcc            0      0.00%     62.14% # Class of committed instruction (Count)
system.cpu.commit.committedInstType_0::SimdFloatSqrt            0      0.00%     62.14% # Class of committed instruction (Count)
system.cpu.commit.committedInstType_0::SimdReduceAdd            0      0.00%     62.14% # Class of committed instruction (Count)
system.cpu.commit.committedInstType_0::SimdReduceAlu            0      0.00%     62.14% # Class of committed instruction (Count)
system.cpu.commit.committedInstType_0::SimdReduceCmp            0      0.00%     62.14% # Class of committed instruction (Count)
system.cpu.commit.committedInstType_0::SimdFloatReduceAdd            0      0.00%     62.14% # Class of committed instruction (Count)
system.cpu.commit.committedInstType_0::SimdFloatReduceCmp            0      0.00%     62.14% # Class of committed instruction (Count)
system.cpu.commit.committedInstType_0::SimdAes            0      0.00%     62.14% # Class of committed instruction (Count)
system.cpu.commit.committedInstType_0::SimdAesMix            0      0.00%     62.14% # Class of committed instruction (Count)
system.cpu.commit.committedInstType_0::SimdSha1Hash            0      0.00%     62.14% # Class of committed instruction (Count)
system.cpu.commit.committedInstType_0::SimdSha1Hash2            0      0.00%     62.14% # Class of committed instruction (Count)
system.cpu.commit.committedInstType_0::SimdSha256Hash            0      0.00%     62.14% # Class of committed instruction (Count)
system.cpu.commit.committedInstType_0::SimdSha256Hash2            0      0.00%     62.14% # Class of committed instruction (Count)
system.cpu.commit.committedInstType_0::SimdShaSigma2            0      0.00%     62.14% # Class of committed instruction (Count)
system.cpu.commit.committedInstType_0::SimdShaSigma3            0      0.00%     62.14% # Class of committed instruction (Count)
system.cpu.commit.committedInstType_0::SimdPredAlu            0      0.00%     62.14% # Class of committed instruction (Count)
system.cpu.commit.committedInstType_0::MemRead       261465     28.73%     90.88% # Class of committed instruction (Count)
system.cpu.commit.committedInstType_0::MemWrite        83023      9.12%    100.00% # Class of committed instruction (Count)
system.cpu.commit.committedInstType_0::FloatMemRead            0      0.00%    100.00% # Class of committed instruction (Count)
system.cpu.commit.committedInstType_0::FloatMemWrite            0      0.00%    100.00% # Class of committed instruction (Count)
system.cpu.commit.committedInstType_0::IprAccess            0      0.00%    100.00% # Class of committed instruction (Count)
system.cpu.commit.committedInstType_0::InstPrefetch            0      0.00%    100.00% # Class of committed instruction (Count)
system.cpu.commit.committedInstType_0::total       909935                       # Class of committed instruction (Count)
system.cpu.commit.commitEligibleSamples         88895                       # number cycles where commit BW limit reached (Cycle)
system.cpu.dcache.demandHits::cpu.data         313728                       # number of demand (read+write) hits (Count)
system.cpu.dcache.demandHits::total            313728                       # number of demand (read+write) hits (Count)
system.cpu.dcache.overallHits::cpu.data        313728                       # number of overall hits (Count)
system.cpu.dcache.overallHits::total           313728                       # number of overall hits (Count)
system.cpu.dcache.demandMisses::cpu.data         9061                       # number of demand (read+write) misses (Count)
system.cpu.dcache.demandMisses::total            9061                       # number of demand (read+write) misses (Count)
system.cpu.dcache.overallMisses::cpu.data         9061                       # number of overall misses (Count)
system.cpu.dcache.overallMisses::total           9061                       # number of overall misses (Count)
system.cpu.dcache.demandMissLatency::cpu.data    684912995                       # number of demand (read+write) miss ticks (Tick)
system.cpu.dcache.demandMissLatency::total    684912995                       # number of demand (read+write) miss ticks (Tick)
system.cpu.dcache.overallMissLatency::cpu.data    684912995                       # number of overall miss ticks (Tick)
system.cpu.dcache.overallMissLatency::total    684912995                       # number of overall miss ticks (Tick)
system.cpu.dcache.demandAccesses::cpu.data       322789                       # number of demand (read+write) accesses (Count)
system.cpu.dcache.demandAccesses::total        322789                       # number of demand (read+write) accesses (Count)
system.cpu.dcache.overallAccesses::cpu.data       322789                       # number of overall (read+write) accesses (Count)
system.cpu.dcache.overallAccesses::total       322789                       # number of overall (read+write) accesses (Count)
system.cpu.dcache.demandMissRate::cpu.data     0.028071                       # miss rate for demand accesses (Ratio)
system.cpu.dcache.demandMissRate::total      0.028071                       # miss rate for demand accesses (Ratio)
system.cpu.dcache.overallMissRate::cpu.data     0.028071                       # miss rate for overall accesses (Ratio)
system.cpu.dcache.overallMissRate::total     0.028071                       # miss rate for overall accesses (Ratio)
system.cpu.dcache.demandAvgMissLatency::cpu.data 75589.117647                       # average overall miss latency in ticks ((Tick/Count))
system.cpu.dcache.demandAvgMissLatency::total 75589.117647                       # average overall miss latency in ticks ((Tick/Count))
system.cpu.dcache.overallAvgMissLatency::cpu.data 75589.117647                       # average overall miss latency ((Tick/Count))
system.cpu.dcache.overallAvgMissLatency::total 75589.117647                       # average overall miss latency ((Tick/Count))
system.cpu.dcache.blockedCycles::no_mshrs          493                       # number of cycles access was blocked (Cycle)
system.cpu.dcache.blockedCycles::no_targets            0                       # number of cycles access was blocked (Cycle)
system.cpu.dcache.blockedCauses::no_mshrs           29                       # number of times access was blocked (Count)
system.cpu.dcache.blockedCauses::no_targets            0                       # number of times access was blocked (Count)
system.cpu.dcache.avgBlocked::no_mshrs             17                       # average number of cycles each access was blocked ((Cycle/Count))
system.cpu.dcache.avgBlocked::no_targets          nan                       # average number of cycles each access was blocked ((Cycle/Count))
system.cpu.dcache.writebacks::writebacks          417                       # number of writebacks (Count)
system.cpu.dcache.writebacks::total               417                       # number of writebacks (Count)
system.cpu.dcache.demandMshrHits::cpu.data         5365                       # number of demand (read+write) MSHR hits (Count)
system.cpu.dcache.demandMshrHits::total          5365                       # number of demand (read+write) MSHR hits (Count)
system.cpu.dcache.overallMshrHits::cpu.data         5365                       # number of overall MSHR hits (Count)
system.cpu.dcache.overallMshrHits::total         5365                       # number of overall MSHR hits (Count)
system.cpu.dcache.demandMshrMisses::cpu.data         3696                       # number of demand (read+write) MSHR misses (Count)
system.cpu.dcache.demandMshrMisses::total         3696                       # number of demand (read+write) MSHR misses (Count)
system.cpu.dcache.overallMshrMisses::cpu.data         3696                       # number of overall MSHR misses (Count)
system.cpu.dcache.overallMshrMisses::total         3696                       # number of overall MSHR misses (Count)
system.cpu.dcache.demandMshrMissLatency::cpu.data    286400996                       # number of demand (read+write) MSHR miss ticks (Tick)
system.cpu.dcache.demandMshrMissLatency::total    286400996                       # number of demand (read+write) MSHR miss ticks (Tick)
system.cpu.dcache.overallMshrMissLatency::cpu.data    286400996                       # number of overall MSHR miss ticks (Tick)
system.cpu.dcache.overallMshrMissLatency::total    286400996                       # number of overall MSHR miss ticks (Tick)
system.cpu.dcache.demandMshrMissRate::cpu.data     0.011450                       # mshr miss ratio for demand accesses (Ratio)
system.cpu.dcache.demandMshrMissRate::total     0.011450                       # mshr miss ratio for demand accesses (Ratio)
system.cpu.dcache.overallMshrMissRate::cpu.data     0.011450                       # mshr miss ratio for overall accesses (Ratio)
system.cpu.dcache.overallMshrMissRate::total     0.011450                       # mshr miss ratio for overall accesses (Ratio)
system.cpu.dcache.demandAvgMshrMissLatency::cpu.data 77489.446970                       # average overall mshr miss latency ((Tick/Count))
system.cpu.dcache.demandAvgMshrMissLatency::total 77489.446970                       # average overall mshr miss latency ((Tick/Count))
system.cpu.dcache.overallAvgMshrMissLatency::cpu.data 77489.446970                       # average overall mshr miss latency ((Tick/Count))
system.cpu.dcache.overallAvgMshrMissLatency::total 77489.446970                       # average overall mshr miss latency ((Tick/Count))
system.cpu.dcache.replacements                   3694                       # number of replacements (Count)
system.cpu.dcache.ReadReq.hits::cpu.data       230847                       # number of ReadReq hits (Count)
system.cpu.dcache.ReadReq.hits::total          230847                       # number of ReadReq hits (Count)
system.cpu.dcache.ReadReq.misses::cpu.data         8919                       # number of ReadReq misses (Count)
system.cpu.dcache.ReadReq.misses::total          8919                       # number of ReadReq misses (Count)
system.cpu.dcache.ReadReq.missLatency::cpu.data    675325000                       # number of ReadReq miss ticks (Tick)
system.cpu.dcache.ReadReq.missLatency::total    675325000                       # number of ReadReq miss ticks (Tick)
system.cpu.dcache.ReadReq.accesses::cpu.data       239766                       # number of ReadReq accesses(hits+misses) (Count)
system.cpu.dcache.ReadReq.accesses::total       239766                       # number of ReadReq accesses(hits+misses) (Count)
system.cpu.dcache.ReadReq.missRate::cpu.data     0.037199                       # miss rate for ReadReq accesses (Ratio)
system.cpu.dcache.ReadReq.missRate::total     0.037199                       # miss rate for ReadReq accesses (Ratio)
system.cpu.dcache.ReadReq.avgMissLatency::cpu.data 75717.569234                       # average ReadReq miss latency ((Tick/Count))
system.cpu.dcache.ReadReq.avgMissLatency::total 75717.569234                       # average ReadReq miss latency ((Tick/Count))
system.cpu.dcache.ReadReq.mshrHits::cpu.data         5353                       # number of ReadReq MSHR hits (Count)
system.cpu.dcache.ReadReq.mshrHits::total         5353                       # number of ReadReq MSHR hits (Count)
system.cpu.dcache.ReadReq.mshrMisses::cpu.data         3566                       # number of ReadReq MSHR misses (Count)
system.cpu.dcache.ReadReq.mshrMisses::total         3566                       # number of ReadReq MSHR misses (Count)
system.cpu.dcache.ReadReq.mshrMissLatency::cpu.data    277174000                       # number of ReadReq MSHR miss ticks (Tick)
system.cpu.dcache.ReadReq.mshrMissLatency::total    277174000                       # number of ReadReq MSHR miss ticks (Tick)
system.cpu.dcache.ReadReq.mshrMissRate::cpu.data     0.014873                       # mshr miss rate for ReadReq accesses (Ratio)
system.cpu.dcache.ReadReq.mshrMissRate::total     0.014873                       # mshr miss rate for ReadReq accesses (Ratio)
system.cpu.dcache.ReadReq.avgMshrMissLatency::cpu.data 77726.864835                       # average ReadReq mshr miss latency ((Tick/Count))
system.cpu.dcache.ReadReq.avgMshrMissLatency::total 77726.864835                       # average ReadReq mshr miss latency ((Tick/Count))
system.cpu.dcache.WriteReq.hits::cpu.data        82881                       # number of WriteReq hits (Count)
system.cpu.dcache.WriteReq.hits::total          82881                       # number of WriteReq hits (Count)
system.cpu.dcache.WriteReq.misses::cpu.data          142                       # number of WriteReq misses (Count)
system.cpu.dcache.WriteReq.misses::total          142                       # number of WriteReq misses (Count)
system.cpu.dcache.WriteReq.missLatency::cpu.data      9587995                       # number of WriteReq miss ticks (Tick)
system.cpu.dcache.WriteReq.missLatency::total      9587995                       # number of WriteReq miss ticks (Tick)
system.cpu.dcache.WriteReq.accesses::cpu.data        83023                       # number of WriteReq accesses(hits+misses) (Count)
system.cpu.dcache.WriteReq.accesses::total        83023                       # number of WriteReq accesses(hits+misses) (Count)
system.cpu.dcache.WriteReq.missRate::cpu.data     0.001710                       # miss rate for WriteReq accesses (Ratio)
system.cpu.dcache.WriteReq.missRate::total     0.001710                       # miss rate for WriteReq accesses (Ratio)
system.cpu.dcache.WriteReq.avgMissLatency::cpu.data 67521.091549                       # average WriteReq miss latency ((Tick/Count))
system.cpu.dcache.WriteReq.avgMissLatency::total 67521.091549                       # average WriteReq miss latency ((Tick/Count))
system.cpu.dcache.WriteReq.mshrHits::cpu.data           12                       # number of WriteReq MSHR hits (Count)
system.cpu.dcache.WriteReq.mshrHits::total           12                       # number of WriteReq MSHR hits (Count)
system.cpu.dcache.WriteReq.mshrMisses::cpu.data          130                       # number of WriteReq MSHR misses (Count)
system.cpu.dcache.WriteReq.mshrMisses::total          130                       # number of WriteReq MSHR misses (Count)
system.cpu.dcache.WriteReq.mshrMissLatency::cpu.data      9226996                       # number of WriteReq MSHR miss ticks (Tick)
system.cpu.dcache.WriteReq.mshrMissLatency::total      9226996                       # number of WriteReq MSHR miss ticks (Tick)
system.cpu.dcache.WriteReq.mshrMissRate::cpu.data     0.001566                       # mshr miss rate for WriteReq accesses (Ratio)
system.cpu.dcache.WriteReq.mshrMissRate::total     0.001566                       # mshr miss rate for WriteReq accesses (Ratio)
system.cpu.dcache.WriteReq.avgMshrMissLatency::cpu.data 70976.892308                       # average WriteReq mshr miss latency ((Tick/Count))
system.cpu.dcache.WriteReq.avgMshrMissLatency::total 70976.892308                       # average WriteReq mshr miss latency ((Tick/Count))
system.cpu.dcache.power_state.pwrStateResidencyTicks::UNDEFINED   1223760500                       # Cumulative time (in ticks) in various power states (Tick)
system.cpu.dcache.tags.tagsInUse                 1024                       # Average ticks per tags in use ((Tick/Count))
system.cpu.dcache.tags.totalRefs                91645                       # Total number of references to valid blocks. (Count)
system.cpu.dcache.tags.sampledRefs               3694                       # Sample count of references to valid blocks. (Count)
system.cpu.dcache.tags.avgRefs              24.809150                       # Average number of references to valid blocks. ((Count/Count))
system.cpu.dcache.tags.warmupTick                   0                       # The tick when the warmup percentage was hit. (Tick)
system.cpu.dcache.tags.occupancies::cpu.data         1024                       # Average occupied blocks per tick, per requestor ((Count/Tick))
system.cpu.dcache.tags.avgOccs::cpu.data            1                       # Average percentage of cache occupancy ((Ratio/Tick))
system.cpu.dcache.tags.avgOccs::total               1                       # Average percentage of cache occupancy ((Ratio/Tick))
system.cpu.dcache.tags.occupanciesTaskId::1024         1024                       # Occupied blocks per task id (Count)
system.cpu.dcache.tags.ageTaskId_1024::0          164                       # Occupied blocks per task id, per block age (Count)
system.cpu.dcache.tags.ageTaskId_1024::1          795                       # Occupied blocks per task id, per block age (Count)
system.cpu.dcache.tags.ageTaskId_1024::2           65                       # Occupied blocks per task id, per block age (Count)
system.cpu.dcache.tags.ratioOccsTaskId::1024            1                       # Ratio of occupied blocks and all blocks, per task id (Ratio)
system.cpu.dcache.tags.tagAccesses            1294850                       # Number of tag accesses (Count)
system.cpu.dcache.tags.dataAccesses           1294850                       # Number of data accesses (Count)
system.cpu.dcache.tags.power_state.pwrStateResidencyTicks::UNDEFINED   1223760500                       # Cumulative time (in ticks) in various power states (Tick)
system.cpu.decode.idleCycles                    31555                       # Number of cycles decode is idle (Cycle)
system.cpu.decode.blockedCycles                279327                       # Number of cycles decode is blocked (Cycle)
system.cpu.decode.runCycles                    114839                       # Number of cycles decode is running (Cycle)
system.cpu.decode.unblockCycles                 10747                       # Number of cycles decode is unblocking (Cycle)
system.cpu.decode.squashCycles                    146                       # Number of cycles decode is squashing (Cycle)
system.cpu.decode.branchResolved                  314                       # Number of times decode resolved a branch (Count)
system.cpu.decode.branchMispred                     2                       # Number of times decode detected a branch misprediction (Count)
system.cpu.decode.decodedInsts                 920241                       # Number of instructions handled by decode (Count)
system.cpu.decode.squashedInsts                     1                       # Number of squashed instructions handled by decode (Count)
system.cpu.fetch.icacheStallCycles              42292                       # Number of cycles fetch is stalled on an Icache miss (Cycle)
system.cpu.fetch.insts                         598801                       # Number of instructions fetch has processed (Count)
system.cpu.fetch.branches                         417                       # Number of branches that fetch encountered (Count)
system.cpu.fetch.predictedBranches                316                       # Number of branches that fetch has predicted taken (Count)
system.cpu.fetch.cycles                        394174                       # Number of cycles fetch has run and was not squashing or blocked (Cycle)
system.cpu.fetch.squashCycles                     296                       # Number of cycles fetch has spent squashing (Cycle)
system.cpu.fetch.cacheLines                     37993                       # Number of cache lines fetched (Count)
system.cpu.fetch.icacheSquashes                    53                       # Number of outstanding Icache misses that were squashed (Count)
system.cpu.fetch.nisnDist::samples             436614                       # Number of instructions fetched each cycle (Total) (Count)
system.cpu.fetch.nisnDist::mean              2.115766                       # Number of instructions fetched each cycle (Total) (Count)
system.cpu.fetch.nisnDist::stdev             3.379434                       # Number of instructions fetched each cycle (Total) (Count)
system.cpu.fetch.nisnDist::underflows               0      0.00%      0.00% # Number of instructions fetched each cycle (Total) (Count)
system.cpu.fetch.nisnDist::0                   303124     69.43%     69.43% # Number of instructions fetched each cycle (Total) (Count)
system.cpu.fetch.nisnDist::1                     1920      0.44%     69.87% # Number of instructions fetched each cycle (Total) (Count)
system.cpu.fetch.nisnDist::2                    11358      2.60%     72.47% # Number of instructions fetched each cycle (Total) (Count)
system.cpu.fetch.nisnDist::3                     1791      0.41%     72.88% # Number of instructions fetched each cycle (Total) (Count)
system.cpu.fetch.nisnDist::4                     3369      0.77%     73.65% # Number of instructions fetched each cycle (Total) (Count)
system.cpu.fetch.nisnDist::5                     9737      2.23%     75.88% # Number of instructions fetched each cycle (Total) (Count)
system.cpu.fetch.nisnDist::6                     1827      0.42%     76.30% # Number of instructions fetched each cycle (Total) (Count)
system.cpu.fetch.nisnDist::7                     7263      1.66%     77.96% # Number of instructions fetched each cycle (Total) (Count)
system.cpu.fetch.nisnDist::8                    96225     22.04%    100.00% # Number of instructions fetched each cycle (Total) (Count)
system.cpu.fetch.nisnDist::overflows                0      0.00%    100.00% # Number of instructions fetched each cycle (Total) (Count)
system.cpu.fetch.nisnDist::min_value                0                       # Number of instructions fetched each cycle (Total) (Count)
system.cpu.fetch.nisnDist::max_value                8                       # Number of instructions fetched each cycle (Total) (Count)
system.cpu.fetch.nisnDist::total               436614                       # Number of instructions fetched each cycle (Total) (Count)
system.cpu.fetch.branchRate                  0.000917                       # Number of branch fetches per cycle (Ratio)
system.cpu.fetch.rate                        1.316715                       # Number of inst fetches per cycle ((Count/Cycle))
system.cpu.icache.demandHits::cpu.inst          37841                       # number of demand (read+write) hits (Count)
system.cpu.icache.demandHits::total             37841                       # number of demand (read+write) hits (Count)
system.cpu.icache.overallHits::cpu.inst         37841                       # number of overall hits (Count)
system.cpu.icache.overallHits::total            37841                       # number of overall hits (Count)
system.cpu.icache.demandMisses::cpu.inst          152                       # number of demand (read+write) misses (Count)
system.cpu.icache.demandMisses::total             152                       # number of demand (read+write) misses (Count)
system.cpu.icache.overallMisses::cpu.inst          152                       # number of overall misses (Count)
system.cpu.icache.overallMisses::total            152                       # number of overall misses (Count)
system.cpu.icache.demandMissLatency::cpu.inst     11911500                       # number of demand (read+write) miss ticks (Tick)
system.cpu.icache.demandMissLatency::total     11911500                       # number of demand (read+write) miss ticks (Tick)
system.cpu.icache.overallMissLatency::cpu.inst     11911500                       # number of overall miss ticks (Tick)
system.cpu.icache.overallMissLatency::total     11911500                       # number of overall miss ticks (Tick)
system.cpu.icache.demandAccesses::cpu.inst        37993                       # number of demand (read+write) accesses (Count)
system.cpu.icache.demandAccesses::total         37993                       # number of demand (read+write) accesses (Count)
system.cpu.icache.overallAccesses::cpu.inst        37993                       # number of overall (read+write) accesses (Count)
system.cpu.icache.overallAccesses::total        37993                       # number of overall (read+write) accesses (Count)
system.cpu.icache.demandMissRate::cpu.inst     0.004001                       # miss rate for demand accesses (Ratio)
system.cpu.icache.demandMissRate::total      0.004001                       # miss rate for demand accesses (Ratio)
system.cpu.icache.overallMissRate::cpu.inst     0.004001                       # miss rate for overall accesses (Ratio)
system.cpu.icache.overallMissRate::total     0.004001                       # miss rate for overall accesses (Ratio)
system.cpu.icache.demandAvgMissLatency::cpu.inst 78365.131579                       # average overall miss latency in ticks ((Tick/Count))
system.cpu.icache.demandAvgMissLatency::total 78365.131579                       # average overall miss latency in ticks ((Tick/Count))
system.cpu.icache.overallAvgMissLatency::cpu.inst 78365.131579                       # average overall miss latency ((Tick/Count))
system.cpu.icache.overallAvgMissLatency::total 78365.131579                       # average overall miss latency ((Tick/Count))
system.cpu.icache.blockedCycles::no_mshrs            0                       # number of cycles access was blocked (Cycle)
system.cpu.icache.blockedCycles::no_targets            0                       # number of cycles access was blocked (Cycle)
system.cpu.icache.blockedCauses::no_mshrs            0                       # number of times access was blocked (Count)
system.cpu.icache.blockedCauses::no_targets            0                       # number of times access was blocked (Count)
system.cpu.icache.avgBlocked::no_mshrs            nan                       # average number of cycles each access was blocked ((Cycle/Count))
system.cpu.icache.avgBlocked::no_targets          nan                       # average number of cycles each access was blocked ((Cycle/Count))
system.cpu.icache.writebacks::writebacks          147                       # number of writebacks (Count)
system.cpu.icache.writebacks::total               147                       # number of writebacks (Count)
system.cpu.icache.demandMshrHits::cpu.inst            6                       # number of demand (read+write) MSHR hits (Count)
system.cpu.icache.demandMshrHits::total             6                       # number of demand (read+write) MSHR hits (Count)
system.cpu.icache.overallMshrHits::cpu.inst            6                       # number of overall MSHR hits (Count)
system.cpu.icache.overallMshrHits::total            6                       # number of overall MSHR hits (Count)
system.cpu.icache.demandMshrMisses::cpu.inst          146                       # number of demand (read+write) MSHR misses (Count)
system.cpu.icache.demandMshrMisses::total          146                       # number of demand (read+write) MSHR misses (Count)
system.cpu.icache.overallMshrMisses::cpu.inst          146                       # number of overall MSHR misses (Count)
system.cpu.icache.overallMshrMisses::total          146                       # number of overall MSHR misses (Count)
system.cpu.icache.demandMshrMissLatency::cpu.inst     11392000                       # number of demand (read+write) MSHR miss ticks (Tick)
system.cpu.icache.demandMshrMissLatency::total     11392000                       # number of demand (read+write) MSHR miss ticks (Tick)
system.cpu.icache.overallMshrMissLatency::cpu.inst     11392000                       # number of overall MSHR miss ticks (Tick)
system.cpu.icache.overallMshrMissLatency::total     11392000                       # number of overall MSHR miss ticks (Tick)
system.cpu.icache.demandMshrMissRate::cpu.inst     0.003843                       # mshr miss ratio for demand accesses (Ratio)
system.cpu.icache.demandMshrMissRate::total     0.003843                       # mshr miss ratio for demand accesses (Ratio)
system.cpu.icache.overallMshrMissRate::cpu.inst     0.003843                       # mshr miss ratio for overall accesses (Ratio)
system.cpu.icache.overallMshrMissRate::total     0.003843                       # mshr miss ratio for overall accesses (Ratio)
system.cpu.icache.demandAvgMshrMissLatency::cpu.inst 78027.397260                       # average overall mshr miss latency ((Tick/Count))
system.cpu.icache.demandAvgMshrMissLatency::total 78027.397260                       # average overall mshr miss latency ((Tick/Count))
system.cpu.icache.overallAvgMshrMissLatency::cpu.inst 78027.397260                       # average overall mshr miss latency ((Tick/Count))
system.cpu.icache.overallAvgMshrMissLatency::total 78027.397260                       # average overall mshr miss latency ((Tick/Count))
system.cpu.icache.replacements                    147                       # number of replacements (Count)
system.cpu.icache.ReadReq.hits::cpu.inst        37841                       # number of ReadReq hits (Count)
system.cpu.icache.ReadReq.hits::total           37841                       # number of ReadReq hits (Count)
system.cpu.icache.ReadReq.misses::cpu.inst          152                       # number of ReadReq misses (Count)
system.cpu.icache.ReadReq.misses::total           152                       # number of ReadReq misses (Count)
system.cpu.icache.ReadReq.missLatency::cpu.inst     11911500                       # number of ReadReq miss ticks (Tick)
system.cpu.icache.ReadReq.missLatency::total     11911500                       # number of ReadReq miss ticks (Tick)
system.cpu.icache.ReadReq.accesses::cpu.inst        37993                       # number of ReadReq accesses(hits+misses) (Count)
system.cpu.icache.ReadReq.accesses::total        37993                       # number of ReadReq accesses(hits+misses) (Count)
system.cpu.icache.ReadReq.missRate::cpu.inst     0.004001                       # miss rate for ReadReq accesses (Ratio)
system.cpu.icache.ReadReq.missRate::total     0.004001                       # miss rate for ReadReq accesses (Ratio)
system.cpu.icache.ReadReq.avgMissLatency::cpu.inst 78365.131579                       # average ReadReq miss latency ((Tick/Count))
system.cpu.icache.ReadReq.avgMissLatency::total 78365.131579                       # average ReadReq miss latency ((Tick/Count))
system.cpu.icache.ReadReq.mshrHits::cpu.inst            6                       # number of ReadReq MSHR hits (Count)
system.cpu.icache.ReadReq.mshrHits::total            6                       # number of ReadReq MSHR hits (Count)
system.cpu.icache.ReadReq.mshrMisses::cpu.inst          146                       # number of ReadReq MSHR misses (Count)
system.cpu.icache.ReadReq.mshrMisses::total          146                       # number of ReadReq MSHR misses (Count)
system.cpu.icache.ReadReq.mshrMissLatency::cpu.inst     11392000                       # number of ReadReq MSHR miss ticks (Tick)
system.cpu.icache.ReadReq.mshrMissLatency::total     11392000                       # number of ReadReq MSHR miss ticks (Tick)
system.cpu.icache.ReadReq.mshrMissRate::cpu.inst     0.003843                       # mshr miss rate for ReadReq accesses (Ratio)
system.cpu.icache.ReadReq.mshrMissRate::total     0.003843                       # mshr miss rate for ReadReq accesses (Ratio)
system.cpu.icache.ReadReq.avgMshrMissLatency::cpu.inst 78027.397260                       # average ReadReq mshr miss latency ((Tick/Count))
system.cpu.icache.ReadReq.avgMshrMissLatency::total 78027.397260                       # average ReadReq mshr miss latency ((Tick/Count))
system.cpu.icache.power_state.pwrStateResidencyTicks::UNDEFINED   1223760500                       # Cumulative time (in ticks) in various power states (Tick)
system.cpu.icache.tags.tagsInUse                  256                       # Average ticks per tags in use ((Tick/Count))
system.cpu.icache.tags.totalRefs                25739                       # Total number of references to valid blocks. (Count)
system.cpu.icache.tags.sampledRefs                147                       # Sample count of references to valid blocks. (Count)
system.cpu.icache.tags.avgRefs             175.095238                       # Average number of references to valid blocks. ((Count/Count))
system.cpu.icache.tags.warmupTick                   0                       # The tick when the warmup percentage was hit. (Tick)
system.cpu.icache.tags.occupancies::cpu.inst          256                       # Average occupied blocks per tick, per requestor ((Count/Tick))
system.cpu.icache.tags.avgOccs::cpu.inst            1                       # Average percentage of cache occupancy ((Ratio/Tick))
system.cpu.icache.tags.avgOccs::total               1                       # Average percentage of cache occupancy ((Ratio/Tick))
system.cpu.icache.tags.occupanciesTaskId::1024          256                       # Occupied blocks per task id (Count)
system.cpu.icache.tags.ageTaskId_1024::2          243                       # Occupied blocks per task id, per block age (Count)
system.cpu.icache.tags.ageTaskId_1024::3           13                       # Occupied blocks per task id, per block age (Count)
system.cpu.icache.tags.ratioOccsTaskId::1024            1                       # Ratio of occupied blocks and all blocks, per task id (Ratio)
system.cpu.icache.tags.tagAccesses             152119                       # Number of tag accesses (Count)
system.cpu.icache.tags.dataAccesses            152119                       # Number of data accesses (Count)
system.cpu.icache.tags.power_state.pwrStateResidencyTicks::UNDEFINED   1223760500                       # Cumulative time (in ticks) in various power states (Tick)
system.cpu.iew.idleCycles                           0                       # Number of cycles IEW is idle (Cycle)
system.cpu.iew.squashCycles                       146                       # Number of cycles IEW is squashing (Cycle)
system.cpu.iew.blockCycles                        642                       # Number of cycles IEW is blocking (Cycle)
system.cpu.iew.unblockCycles                    86122                       # Number of cycles IEW is unblocking (Cycle)
system.cpu.iew.dispatchedInsts                 918408                       # Number of instructions dispatched to IQ (Count)
system.cpu.iew.dispSquashedInsts                    0                       # Number of squashed instructions skipped by dispatch (Count)
system.cpu.iew.dispLoadInsts                   264001                       # Number of dispatched load instructions (Count)
system.cpu.iew.dispStoreInsts                   83933                       # Number of dispatched store instructions (Count)
system.cpu.iew.dispNonSpecInsts                     1                       # Number of dispatched non-speculative instructions (Count)
system.cpu.iew.iqFullEvents                       186                       # Number of times the IQ has become full, causing a stall (Count)
system.cpu.iew.lsqFullEvents                    85462                       # Number of times the LSQ has become full, causing a stall (Count)
system.cpu.iew.memOrderViolationEvents            160                       # Number of memory order violations (Count)
system.cpu.iew.predictedTakenIncorrect              4                       # Number of branches that were predicted taken incorrectly (Count)
system.cpu.iew.predictedNotTakenIncorrect            5                       # Number of branches that were predicted not taken incorrectly (Count)
system.cpu.iew.branchMispredicts                    9                       # Number of branch mispredicts detected at execute (Count)
system.cpu.iew.instsToCommit                   915372                       # Cumulative count of insts sent to commit (Count)
system.cpu.iew.writebackCount                  914971                       # Cumulative count of insts written-back (Count)
system.cpu.iew.producerInst                    494305                       # Number of instructions producing a value (Count)
system.cpu.iew.consumerInst                    970222                       # Number of instructions consuming a value (Count)
system.cpu.iew.wbRate                        2.011947                       # Insts written-back per cycle ((Count/Cycle))
system.cpu.iew.wbFanout                      0.509476                       # Average fanout of values written-back ((Count/Count))
system.cpu.lsq0.forwLoads                       23586                       # Number of loads that had data forwarded from stores (Count)
system.cpu.lsq0.squashedLoads                    2513                       # Number of loads squashed (Count)
system.cpu.lsq0.ignoredResponses                    1                       # Number of memory responses ignored because the instruction is squashed (Count)
system.cpu.lsq0.memOrderViolation                 160                       # Number of memory ordering violations (Count)
system.cpu.lsq0.squashedStores                    894                       # Number of stores squashed (Count)
system.cpu.lsq0.rescheduledLoads                  395                       # Number of loads that were rescheduled (Count)
system.cpu.lsq0.blockedByCache                     29                       # Number of times an access to memory failed due to the cache being blocked (Count)
system.cpu.lsq0.loadToUse::samples             261465                       # Distribution of cycle latency between the first time a load is issued and its completion (Unspecified)
system.cpu.lsq0.loadToUse::mean              8.605817                       # Distribution of cycle latency between the first time a load is issued and its completion (Unspecified)
system.cpu.lsq0.loadToUse::stdev            29.153652                       # Distribution of cycle latency between the first time a load is issued and its completion (Unspecified)
system.cpu.lsq0.loadToUse::0-9                 252638     96.62%     96.62% # Distribution of cycle latency between the first time a load is issued and its completion (Unspecified)
system.cpu.lsq0.loadToUse::10-19                   25      0.01%     96.63% # Distribution of cycle latency between the first time a load is issued and its completion (Unspecified)
system.cpu.lsq0.loadToUse::20-29                   13      0.00%     96.64% # Distribution of cycle latency between the first time a load is issued and its completion (Unspecified)
system.cpu.lsq0.loadToUse::30-39                    3      0.00%     96.64% # Distribution of cycle latency between the first time a load is issued and its completion (Unspecified)
system.cpu.lsq0.loadToUse::40-49                    3      0.00%     96.64% # Distribution of cycle latency between the first time a load is issued and its completion (Unspecified)
system.cpu.lsq0.loadToUse::60-69                    1      0.00%     96.64% # Distribution of cycle latency between the first time a load is issued and its completion (Unspecified)
system.cpu.lsq0.loadToUse::70-79                    3      0.00%     96.64% # Distribution of cycle latency between the first time a load is issued and its completion (Unspecified)
system.cpu.lsq0.loadToUse::80-89                    2      0.00%     96.64% # Distribution of cycle latency between the first time a load is issued and its completion (Unspecified)
system.cpu.lsq0.loadToUse::110-119                 24      0.01%     96.65% # Distribution of cycle latency between the first time a load is issued and its completion (Unspecified)
system.cpu.lsq0.loadToUse::120-129                 32      0.01%     96.66% # Distribution of cycle latency between the first time a load is issued and its completion (Unspecified)
system.cpu.lsq0.loadToUse::130-139               2320      0.89%     97.55% # Distribution of cycle latency between the first time a load is issued and its completion (Unspecified)
system.cpu.lsq0.loadToUse::140-149               4669      1.79%     99.34% # Distribution of cycle latency between the first time a load is issued and its completion (Unspecified)
system.cpu.lsq0.loadToUse::150-159                382      0.15%     99.48% # Distribution of cycle latency between the first time a load is issued and its completion (Unspecified)
system.cpu.lsq0.loadToUse::160-169                349      0.13%     99.62% # Distribution of cycle latency between the first time a load is issued and its completion (Unspecified)
system.cpu.lsq0.loadToUse::170-179                632      0.24%     99.86% # Distribution of cycle latency between the first time a load is issued and its completion (Unspecified)
system.cpu.lsq0.loadToUse::180-189                117      0.04%     99.90% # Distribution of cycle latency between the first time a load is issued and its completion (Unspecified)
system.cpu.lsq0.loadToUse::190-199                 28      0.01%     99.91% # Distribution of cycle latency between the first time a load is issued and its completion (Unspecified)
system.cpu.lsq0.loadToUse::200-209                  8      0.00%     99.92% # Distribution of cycle latency between the first time a load is issued and its completion (Unspecified)
system.cpu.lsq0.loadToUse::210-219                  4      0.00%     99.92% # Distribution of cycle latency between the first time a load is issued and its completion (Unspecified)
system.cpu.lsq0.loadToUse::220-229                 11      0.00%     99.92% # Distribution of cycle latency between the first time a load is issued and its completion (Unspecified)
system.cpu.lsq0.loadToUse::230-239                 16      0.01%     99.93% # Distribution of cycle latency between the first time a load is issued and its completion (Unspecified)
system.cpu.lsq0.loadToUse::240-249                  2      0.00%     99.93% # Distribution of cycle latency between the first time a load is issued and its completion (Unspecified)
system.cpu.lsq0.loadToUse::250-259                 10      0.00%     99.93% # Distribution of cycle latency between the first time a load is issued and its completion (Unspecified)
system.cpu.lsq0.loadToUse::260-269                  3      0.00%     99.93% # Distribution of cycle latency between the first time a load is issued and its completion (Unspecified)
system.cpu.lsq0.loadToUse::270-279                  2      0.00%     99.94% # Distribution of cycle latency between the first time a load is issued and its completion (Unspecified)
system.cpu.lsq0.loadToUse::290-299                  5      0.00%     99.94% # Distribution of cycle latency between the first time a load is issued and its completion (Unspecified)
system.cpu.lsq0.loadToUse::overflows              163      0.06%    100.00% # Distribution of cycle latency between the first time a load is issued and its completion (Unspecified)
system.cpu.lsq0.loadToUse::min_value                2                       # Distribution of cycle latency between the first time a load is issued and its completion (Unspecified)
system.cpu.lsq0.loadToUse::max_value              812                       # Distribution of cycle latency between the first time a load is issued and its completion (Unspecified)
system.cpu.lsq0.loadToUse::total               261465                       # Distribution of cycle latency between the first time a load is issued and its completion (Unspecified)
system.cpu.mmu.alignFaults                          0                       # Number of MMU faults due to alignment restrictions (Count)
system.cpu.mmu.prefetchFaults                       0                       # Number of MMU faults due to prefetch (Count)
system.cpu.mmu.domainFaults                         0                       # Number of MMU faults due to domain restrictions (Count)
system.cpu.mmu.permsFaults                          0                       # Number of MMU faults due to permissions restrictions (Count)
system.cpu.mmu.dtb.readHits                         0                       # Read hits (Count)
system.cpu.mmu.dtb.readMisses                       0                       # Read misses (Count)
system.cpu.mmu.dtb.writeHits                        0                       # Write hits (Count)
system.cpu.mmu.dtb.writeMisses                      0                       # Write misses (Count)
system.cpu.mmu.dtb.inserts                          0                       # Number of times an entry is inserted into the TLB (Count)
system.cpu.mmu.dtb.flushTlb                         0                       # Number of times a TLB invalidation was requested (Count)
system.cpu.mmu.dtb.flushedEntries                   0                       # Number of entries that have been flushed from TLB (Count)
system.cpu.mmu.dtb.readAccesses                     0                       # Read accesses (Count)
[...]
system.mem_ctrls.dram.perBankWrBursts::9           19                       # Per bank write bursts (Count)
system.mem_ctrls.dram.perBankWrBursts::10            1                       # Per bank write bursts (Count)
system.mem_ctrls.dram.perBankWrBursts::11            0                       # Per bank write bursts (Count)
system.mem_ctrls.dram.perBankWrBursts::12            1                       # Per bank write bursts (Count)
system.mem_ctrls.dram.perBankWrBursts::13            0                       # Per bank write bursts (Count)
system.mem_ctrls.dram.perBankWrBursts::14           15                       # Per bank write bursts (Count)
system.mem_ctrls.dram.perBankWrBursts::15            6                       # Per bank write bursts (Count)
system.mem_ctrls.dram.totQLat                 7679250                       # Total ticks spent queuing (Tick)
system.mem_ctrls.dram.totBusLat               2430000                       # Total ticks spent in databus transfers (Tick)
system.mem_ctrls.dram.totMemAccLat           16791750                       # Total ticks spent from burst creation until serviced by the DRAM (Tick)
system.mem_ctrls.dram.avgQLat                15800.93                       # Average queueing delay per DRAM burst ((Tick/Count))
system.mem_ctrls.dram.avgBusLat               5000.00                       # Average bus latency per DRAM burst ((Tick/Count))
system.mem_ctrls.dram.avgMemAccLat           34550.93                       # Average memory access latency per DRAM burst ((Tick/Count))
system.mem_ctrls.dram.readRowHits                 305                       # Number of row buffer hits during reads (Count)
system.mem_ctrls.dram.writeRowHits                 75                       # Number of row buffer hits during writes (Count)
system.mem_ctrls.dram.readRowHitRate            62.76                       # Row buffer hit rate for reads (Ratio)
system.mem_ctrls.dram.writeRowHitRate           78.12                       # Row buffer hit rate for writes (Ratio)
system.mem_ctrls.dram.bytesPerActivate::samples          192                       # Bytes accessed per row activation (Byte)
system.mem_ctrls.dram.bytesPerActivate::mean   186.333333                       # Bytes accessed per row activation (Byte)
system.mem_ctrls.dram.bytesPerActivate::gmean   126.409911                       # Bytes accessed per row activation (Byte)
system.mem_ctrls.dram.bytesPerActivate::stdev   209.646058                       # Bytes accessed per row activation (Byte)
system.mem_ctrls.dram.bytesPerActivate::0-127           92     47.92%     47.92% # Bytes accessed per row activation (Byte)
system.mem_ctrls.dram.bytesPerActivate::128-255           56     29.17%     77.08% # Bytes accessed per row activation (Byte)
system.mem_ctrls.dram.bytesPerActivate::256-383           21     10.94%     88.02% # Bytes accessed per row activation (Byte)
system.mem_ctrls.dram.bytesPerActivate::384-511            6      3.12%     91.15% # Bytes accessed per row activation (Byte)
system.mem_ctrls.dram.bytesPerActivate::512-639            6      3.12%     94.27% # Bytes accessed per row activation (Byte)
system.mem_ctrls.dram.bytesPerActivate::640-767            3      1.56%     95.83% # Bytes accessed per row activation (Byte)
system.mem_ctrls.dram.bytesPerActivate::896-1023            4      2.08%     97.92% # Bytes accessed per row activation (Byte)
system.mem_ctrls.dram.bytesPerActivate::1024-1151            4      2.08%    100.00% # Bytes accessed per row activation (Byte)
system.mem_ctrls.dram.bytesPerActivate::total          192                       # Bytes accessed per row activation (Byte)
system.mem_ctrls.dram.bytesRead                 31104                       # Total bytes read (Byte)
system.mem_ctrls.dram.bytesWritten               6144                       # Total bytes written (Byte)
system.mem_ctrls.dram.avgRdBW             1239.079773                       # Average DRAM read bandwidth in MiBytes/s ((Byte/Second))
system.mem_ctrls.dram.avgWrBW              244.756498                       # Average DRAM write bandwidth in MiBytes/s ((Byte/Second))
system.mem_ctrls.dram.peakBW                 12800.00                       # Theoretical peak bandwidth in MiByte/s ((Byte/Second))
system.mem_ctrls.dram.busUtil                   11.59                       # Data bus utilization in percentage (Ratio)
system.mem_ctrls.dram.busUtilRead                9.68                       # Data bus utilization in percentage for reads (Ratio)
system.mem_ctrls.dram.busUtilWrite               1.91                       # Data bus utilization in percentage for writes (Ratio)
system.mem_ctrls.dram.pageHitRate               65.29                       # Row buffer hit rate, read and write combined (Ratio)
system.mem_ctrls.dram.power_state.pwrStateResidencyTicks::UNDEFINED     25102500                       # Cumulative time (in ticks) in various power states (Tick)
system.mem_ctrls.dram.rank0.actEnergy          735420                       # Energy for activate commands per rank (pJ) (Joule)
system.mem_ctrls.dram.rank0.preEnergy          364320                       # Energy for precharge commands per rank (pJ) (Joule)
system.mem_ctrls.dram.rank0.readEnergy        1592220                       # Energy for read commands per rank (pJ) (Joule)
system.mem_ctrls.dram.rank0.writeEnergy        229680                       # Energy for write commands per rank (pJ) (Joule)
system.mem_ctrls.dram.rank0.refreshEnergy 1843920.000000                       # Energy for refresh commands per rank (pJ) (Joule)
system.mem_ctrls.dram.rank0.actBackEnergy     11407410                       # Energy for active background per rank (pJ) (Joule)
system.mem_ctrls.dram.rank0.preBackEnergy        33120                       # Energy for precharge background per rank (pJ) (Joule)
system.mem_ctrls.dram.rank0.actPowerDownEnergy            0                       # Energy for active power-down per rank (pJ) (Joule)
system.mem_ctrls.dram.rank0.prePowerDownEnergy            0                       # Energy for precharge power-down per rank (pJ) (Joule)
system.mem_ctrls.dram.rank0.selfRefreshEnergy            0                       # Energy for self refresh per rank (pJ) (Joule)
system.mem_ctrls.dram.rank0.totalEnergy      16206090                       # Total energy per rank (pJ) (Joule)
system.mem_ctrls.dram.rank0.averagePower   645.596654                       # Core power per rank (mW) (Watt)
system.mem_ctrls.dram.rank0.totalIdleTime            0                       # Total Idle time Per DRAM Rank (Tick)
system.mem_ctrls.dram.rank0.pwrStateTime::IDLE         3500                       # Time in different power states (Tick)
system.mem_ctrls.dram.rank0.pwrStateTime::REF       780000                       # Time in different power states (Tick)
system.mem_ctrls.dram.rank0.pwrStateTime::SREF            0                       # Time in different power states (Tick)
system.mem_ctrls.dram.rank0.pwrStateTime::PRE_PDN            0                       # Time in different power states (Tick)
system.mem_ctrls.dram.rank0.pwrStateTime::ACT     24319000                       # Time in different power states (Tick)
system.mem_ctrls.dram.rank0.pwrStateTime::ACT_PDN            0                       # Time in different power states (Tick)
system.mem_ctrls.dram.rank1.actEnergy          706860                       # Energy for activate commands per rank (pJ) (Joule)
system.mem_ctrls.dram.rank1.preEnergy          364320                       # Energy for precharge commands per rank (pJ) (Joule)
system.mem_ctrls.dram.rank1.readEnergy        1877820                       # Energy for read commands per rank (pJ) (Joule)
system.mem_ctrls.dram.rank1.writeEnergy        271440                       # Energy for write commands per rank (pJ) (Joule)
system.mem_ctrls.dram.rank1.refreshEnergy 1843920.000000                       # Energy for refresh commands per rank (pJ) (Joule)
system.mem_ctrls.dram.rank1.actBackEnergy     11186250                       # Energy for active background per rank (pJ) (Joule)
system.mem_ctrls.dram.rank1.preBackEnergy       219360                       # Energy for precharge background per rank (pJ) (Joule)
system.mem_ctrls.dram.rank1.actPowerDownEnergy            0                       # Energy for active power-down per rank (pJ) (Joule)
system.mem_ctrls.dram.rank1.prePowerDownEnergy            0                       # Energy for precharge power-down per rank (pJ) (Joule)
system.mem_ctrls.dram.rank1.selfRefreshEnergy            0                       # Energy for self refresh per rank (pJ) (Joule)
system.mem_ctrls.dram.rank1.totalEnergy      16469970                       # Total energy per rank (pJ) (Joule)
system.mem_ctrls.dram.rank1.averagePower   656.108754                       # Core power per rank (mW) (Watt)
system.mem_ctrls.dram.rank1.totalIdleTime            0                       # Total Idle time Per DRAM Rank (Tick)
system.mem_ctrls.dram.rank1.pwrStateTime::IDLE       488750                       # Time in different power states (Tick)
system.mem_ctrls.dram.rank1.pwrStateTime::REF       780000                       # Time in different power states (Tick)
system.mem_ctrls.dram.rank1.pwrStateTime::SREF            0                       # Time in different power states (Tick)
system.mem_ctrls.dram.rank1.pwrStateTime::PRE_PDN            0                       # Time in different power states (Tick)
system.mem_ctrls.dram.rank1.pwrStateTime::ACT     23833750                       # Time in different power states (Tick)
system.mem_ctrls.dram.rank1.pwrStateTime::ACT_PDN            0                       # Time in different power states (Tick)
system.mem_ctrls.power_state.pwrStateResidencyTicks::UNDEFINED     25102500                       # Cumulative time (in ticks) in various power states (Tick)
system.membus.transDist::ReadResp                 480                       # Transaction distribution (Count)
system.membus.transDist::WritebackDirty            98                       # Transaction distribution (Count)
system.membus.transDist::CleanEvict               575                       # Transaction distribution (Count)
system.membus.transDist::ReadExReq                 12                       # Transaction distribution (Count)
system.membus.transDist::ReadExResp                12                       # Transaction distribution (Count)
system.membus.transDist::ReadSharedReq            480                       # Transaction distribution (Count)
system.membus.transDist::InvalidateReq              1                       # Transaction distribution (Count)
system.membus.pktCount_system.l2.mem_side_port::system.mem_ctrls.port         1658                       # Packet count per connected requestor and responder (Count)
system.membus.pktCount::total                    1658                       # Packet count per connected requestor and responder (Count)
system.membus.pktSize_system.l2.mem_side_port::system.mem_ctrls.port        37760                       # Cumulative packet size per connected requestor and responder (Byte)
system.membus.pktSize::total                    37760                       # Cumulative packet size per connected requestor and responder (Byte)
system.membus.snoops                                0                       # Total snoops (Count)
system.membus.snoopTraffic                          0                       # Total snoop traffic (Byte)
system.membus.snoopFanout::samples                493                       # Request fanout histogram (Count)
system.membus.snoopFanout::mean                     0                       # Request fanout histogram (Count)
system.membus.snoopFanout::stdev                    0                       # Request fanout histogram (Count)
system.membus.snoopFanout::underflows               0      0.00%      0.00% # Request fanout histogram (Count)
system.membus.snoopFanout::0                      493    100.00%    100.00% # Request fanout histogram (Count)
system.membus.snoopFanout::1                        0      0.00%    100.00% # Request fanout histogram (Count)
system.membus.snoopFanout::overflows                0      0.00%    100.00% # Request fanout histogram (Count)
system.membus.snoopFanout::min_value                0                       # Request fanout histogram (Count)
system.membus.snoopFanout::max_value                0                       # Request fanout histogram (Count)
system.membus.snoopFanout::total                  493                       # Request fanout histogram (Count)
system.membus.power_state.pwrStateResidencyTicks::UNDEFINED     25102500                       # Cumulative time (in ticks) in various power states (Tick)
system.membus.reqLayer0.occupancy             1672000                       # Layer occupancy (ticks) (Tick)
system.membus.reqLayer0.utilization               0.1                       # Layer utilization (Ratio)
system.membus.respLayer1.occupancy            2640000                       # Layer occupancy (ticks) (Tick)
system.membus.respLayer1.utilization              0.1                       # Layer utilization (Ratio)
system.membus.snoop_filter.totRequests           1166                       # Total number of requests made to the snoop filter. (Count)
system.membus.snoop_filter.hitSingleRequests          673                       # Number of requests hitting in the snoop filter with a single holder of the requested data. (Count)
system.membus.snoop_filter.hitMultiRequests            0                       # Number of requests hitting in the snoop filter with multiple (>1) holders of the requested data. (Count)
system.membus.snoop_filter.totSnoops                0                       # Total number of snoops made to the snoop filter. (Count)
system.membus.snoop_filter.hitSingleSnoops            0                       # Number of snoops hitting in the snoop filter with a single holder of the requested data. (Count)
system.membus.snoop_filter.hitMultiSnoops            0                       # Number of snoops hitting in the snoop filter with multiple (>1) holders of the requested data. (Count)
system.tol2bus.transDist::ReadResp                561                       # Transaction distribution (Count)
system.tol2bus.transDist::WritebackDirty          104                       # Transaction distribution (Count)
system.tol2bus.transDist::WritebackClean          251                       # Transaction distribution (Count)
system.tol2bus.transDist::CleanEvict              910                       # Transaction distribution (Count)
system.tol2bus.transDist::ReadExReq                22                       # Transaction distribution (Count)
system.tol2bus.transDist::ReadExResp               22                       # Transaction distribution (Count)
system.tol2bus.transDist::ReadCleanReq            252                       # Transaction distribution (Count)
system.tol2bus.transDist::ReadSharedReq           308                       # Transaction distribution (Count)
system.tol2bus.transDist::InvalidateReq             3                       # Transaction distribution (Count)
system.tol2bus.transDist::InvalidateResp            3                       # Transaction distribution (Count)
system.tol2bus.pktCount_system.cpu.icache.mem_side_port::system.l2.cpu_side_port          754                       # Packet count per connected requestor and responder (Count)
system.tol2bus.pktCount_system.cpu.dcache.mem_side_port::system.l2.cpu_side_port         1003                       # Packet count per connected requestor and responder (Count)
system.tol2bus.pktCount::total                   1757                       # Packet count per connected requestor and responder (Count)
system.tol2bus.pktSize_system.cpu.icache.mem_side_port::system.l2.cpu_side_port        32128                       # Cumulative packet size per connected requestor and responder (Byte)
system.tol2bus.pktSize_system.cpu.dcache.mem_side_port::system.l2.cpu_side_port        21632                       # Cumulative packet size per connected requestor and responder (Byte)
system.tol2bus.pktSize::total                   53760                       # Cumulative packet size per connected requestor and responder (Byte)
system.tol2bus.snoops                             679                       # Total snoops (Count)
system.tol2bus.snoopTraffic                      6272                       # Total snoop traffic (Byte)
system.tol2bus.snoopFanout::samples              1264                       # Request fanout histogram (Count)
system.tol2bus.snoopFanout::mean             0.007120                       # Request fanout histogram (Count)
system.tol2bus.snoopFanout::stdev            0.084114                       # Request fanout histogram (Count)
system.tol2bus.snoopFanout::underflows              0      0.00%      0.00% # Request fanout histogram (Count)
system.tol2bus.snoopFanout::0                    1255     99.29%     99.29% # Request fanout histogram (Count)
system.tol2bus.snoopFanout::1                       9      0.71%    100.00% # Request fanout histogram (Count)
system.tol2bus.snoopFanout::2                       0      0.00%    100.00% # Request fanout histogram (Count)
system.tol2bus.snoopFanout::overflows               0      0.00%    100.00% # Request fanout histogram (Count)
system.tol2bus.snoopFanout::min_value               0                       # Request fanout histogram (Count)
system.tol2bus.snoopFanout::max_value               1                       # Request fanout histogram (Count)
system.tol2bus.snoopFanout::total                1264                       # Request fanout histogram (Count)
system.tol2bus.power_state.pwrStateResidencyTicks::UNDEFINED     25102500                       # Cumulative time (in ticks) in various power states (Tick)
system.tol2bus.reqLayer0.occupancy             842500                       # Layer occupancy (ticks) (Tick)
system.tol2bus.reqLayer0.utilization              0.0                       # Layer utilization (Ratio)
system.tol2bus.respLayer0.occupancy            376500                       # Layer occupancy (ticks) (Tick)
system.tol2bus.respLayer0.utilization             0.0                       # Layer utilization (Ratio)
system.tol2bus.respLayer1.occupancy            499500                       # Layer occupancy (ticks) (Tick)
system.tol2bus.respLayer1.utilization             0.0                       # Layer utilization (Ratio)
system.tol2bus.snoop_filter.totRequests          1171                       # Total number of requests made to the snoop filter. (Count)
system.tol2bus.snoop_filter.hitSingleRequests          586                       # Number of requests hitting in the snoop filter with a single holder of the requested data. (Count)
system.tol2bus.snoop_filter.hitMultiRequests            0                       # Number of requests hitting in the snoop filter with multiple (>1) holders of the requested data. (Count)
system.tol2bus.snoop_filter.totSnoops               9                       # Total number of snoops made to the snoop filter. (Count)
system.tol2bus.snoop_filter.hitSingleSnoops            9                       # Number of snoops hitting in the snoop filter with a single holder of the requested data. (Count)
system.tol2bus.snoop_filter.hitMultiSnoops            0                       # Number of snoops hitting in the snoop filter with multiple (>1) holders of the requested data. (Count)
system.voltage_domain.voltage                       1                       # Voltage in Volts (Volt)
system.workload.inst.arm                            0                       # number of arm instructions executed (Count)
system.workload.inst.quiesce                        0                       # number of quiesce instructions executed (Count)

---------- End Simulation Statistics   ----------
