
---------- Begin Simulation Statistics ----------
simSeconds                                   0.092839                       # Number of seconds simulated (Second)
simTicks                                  92839193000                       # Number of ticks simulated (Tick)
finalTick                                 92839193000                       # Number of ticks from beginning of simulation (restored from checkpoints and never reset) (Tick)
simFreq                                  1000000000000                       # The number of ticks per simulated second ((Tick/Second))
hostSeconds                                    419.88                       # Real time elapsed on the host (Second)
hostTickRate                                221106350                       # The number of ticks simulated per host second (ticks/s) ((Tick/Second))
hostMemory                                     681144                       # Number of bytes of host memory used (Byte)
simInsts                                     66396369                       # Number of instructions simulated (Count)
simOps                                       66667466                       # Number of ops (including micro ops) simulated (Count)
hostInstRate                                   158130                       # Simulator instruction rate (inst/s) ((Count/Second))
hostOpRate                                     158776                       # Simulator op (including micro ops) rate (op/s) ((Count/Second))
system.clk_domain.clock                          1000                       # Clock period in ticks (Tick)
system.cpu.numCycles                        185678388                       # Number of cpu cycles simulated (Cycle)
system.cpu.numWorkItemsStarted                      0                       # Number of work items this cpu started (Count)
system.cpu.numWorkItemsCompleted                    0                       # Number of work items this cpu completed (Count)
system.cpu.instsAdded                        67581795                       # Number of instructions added to the IQ (excludes non-spec) (Count)
system.cpu.nonSpecInstsAdded                      410                       # Number of non-speculative instructions added to the IQ (Count)
system.cpu.instsIssued                      112446037                       # Number of instructions issued (Count)
system.cpu.squashedInstsIssued                  53307                       # Number of squashed instructions issued (Count)
system.cpu.squashedInstsExamined               914738                       # Number of squashed instructions iterated over during squash; mainly for profiling (Count)
system.cpu.squashedOperandsExamined           1039228                       # Number of squashed operands that are examined and possibly removed from graph (Count)
system.cpu.squashedNonSpecRemoved                 137                       # Number of squashed non-spec instructions that were removed (Count)
system.cpu.numIssuedDist::samples           185538541                       # Number of insts issued each cycle (Count)
system.cpu.numIssuedDist::mean               0.606052                       # Number of insts issued each cycle (Count)
system.cpu.numIssuedDist::stdev              1.416057                       # Number of insts issued each cycle (Count)
system.cpu.numIssuedDist::underflows                0      0.00%      0.00% # Number of insts issued each cycle (Count)
system.cpu.numIssuedDist::0                 146180883     78.79%     78.79% # Number of insts issued each cycle (Count)
system.cpu.numIssuedDist::1                  13701117      7.38%     86.17% # Number of insts issued each cycle (Count)
system.cpu.numIssuedDist::2                   5021504      2.71%     88.88% # Number of insts issued each cycle (Count)
system.cpu.numIssuedDist::3                   4556415      2.46%     91.33% # Number of insts issued each cycle (Count)
system.cpu.numIssuedDist::4                   9111113      4.91%     96.24% # Number of insts issued each cycle (Count)
system.cpu.numIssuedDist::5                   4702095      2.53%     98.78% # Number of insts issued each cycle (Count)
system.cpu.numIssuedDist::6                   1382706      0.75%     99.52% # Number of insts issued each cycle (Count)
system.cpu.numIssuedDist::7                    280160      0.15%     99.68% # Number of insts issued each cycle (Count)
system.cpu.numIssuedDist::8                    602548      0.32%    100.00% # Number of insts issued each cycle (Count)
system.cpu.numIssuedDist::overflows                 0      0.00%    100.00% # Number of insts issued each cycle (Count)
system.cpu.numIssuedDist::min_value                 0                       # Number of insts issued each cycle (Count)
system.cpu.numIssuedDist::max_value                 8                       # Number of insts issued each cycle (Count)
system.cpu.numIssuedDist::total             185538541                       # Number of insts issued each cycle (Count)
system.cpu.statFuBusy::No_OpClass                   0      0.00%      0.00% # attempts to use FU when none available (Count)
system.cpu.statFuBusy::IntAlu                   37350      0.37%      0.37% # attempts to use FU when none available (Count)
system.cpu.statFuBusy::IntMult                      0      0.00%      0.37% # attempts to use FU when none available (Count)
system.cpu.statFuBusy::IntDiv                    1210      0.01%      0.38% # attempts to use FU when none available (Count)
system.cpu.statFuBusy::FloatAdd                     0      0.00%      0.38% # attempts to use FU when none available (Count)
system.cpu.statFuBusy::FloatCmp                     0      0.00%      0.38% # attempts to use FU when none available (Count)
system.cpu.statFuBusy::FloatCvt                     0      0.00%      0.38% # attempts to use FU when none available (Count)
system.cpu.statFuBusy::FloatMult                    0      0.00%      0.38% # attempts to use FU when none available (Count)
system.cpu.statFuBusy::FloatMultAcc                 0      0.00%      0.38% # attempts to use FU when none available (Count)
system.cpu.statFuBusy::FloatDiv                     0      0.00%      0.38% # attempts to use FU when none available (Count)
system.cpu.statFuBusy::FloatMisc                    0      0.00%      0.38% # attempts to use FU when none available (Count)
system.cpu.statFuBusy::FloatSqrt                    0      0.00%      0.38% # attempts to use FU when none available (Count)
system.cpu.statFuBusy::SimdAdd                      2      0.00%      0.38% # attempts to use FU when none available (Count)
system.cpu.statFuBusy::SimdAddAcc                   0      0.00%      0.38% # attempts to use FU when none available (Count)
system.cpu.statFuBusy::SimdAlu                     17      0.00%      0.38% # attempts to use FU when none available (Count)
system.cpu.statFuBusy::SimdCmp                     15      0.00%      0.38% # attempts to use FU when none available (Count)
system.cpu.statFuBusy::SimdCvt                      0      0.00%      0.38% # attempts to use FU when none available (Count)
system.cpu.statFuBusy::SimdMisc                     0      0.00%      0.38% # attempts to use FU when none available (Count)
system.cpu.statFuBusy::SimdMult                   111      0.00%      0.38% # attempts to use FU when none available (Count)
system.cpu.statFuBusy::SimdMultAcc                  0      0.00%      0.38% # attempts to use FU when none available (Count)
system.cpu.statFuBusy::SimdShift                    0      0.00%      0.38% # attempts to use FU when none available (Count)
system.cpu.statFuBusy::SimdShiftAcc                 0      0.00%      0.38% # attempts to use FU when none available (Count)
system.cpu.statFuBusy::SimdDiv                      0      0.00%      0.38% # attempts to use FU when none available (Count)
system.cpu.statFuBusy::SimdSqrt                     0      0.00%      0.38% # attempts to use FU when none available (Count)
system.cpu.statFuBusy::SimdFloatAdd                 0      0.00%      0.38% # attempts to use FU when none available (Count)
system.cpu.statFuBusy::SimdFloatAlu                 0      0.00%      0.38% # attempts to use FU when none available (Count)
system.cpu.statFuBusy::SimdFloatCmp                 0      0.00%      0.38% # attempts to use FU when none available (Count)
system.cpu.statFuBusy::SimdFloatCvt                 0      0.00%      0.38% # attempts to use FU when none available (Count)
system.cpu.statFuBusy::SimdFloatDiv                 0      0.00%      0.38% # attempts to use FU when none available (Count)
system.cpu.statFuBusy::SimdFloatMisc                0      0.00%      0.38% # attempts to use FU when none available (Count)
system.cpu.statFuBusy::SimdFloatMult                0      0.00%      0.38% # attempts to use FU when none available (Count)
system.cpu.statFuBusy::SimdFloatMultAcc             0      0.00%      0.38% # attempts to use FU when none available (Count)
system.cpu.statFuBusy::SimdFloatSqrt                0      0.00%      0.38% # attempts to use FU when none available (Count)
system.cpu.statFuBusy::SimdReduceAdd                0      0.00%      0.38% # attempts to use FU when none available (Count)
system.cpu.statFuBusy::SimdReduceAlu                0      0.00%      0.38% # attempts to use FU when none available (Count)
system.cpu.statFuBusy::SimdReduceCmp                0      0.00%      0.38% # attempts to use FU when none available (Count)
system.cpu.statFuBusy::SimdFloatReduceAdd            0      0.00%      0.38% # attempts to use FU when none available (Count)
system.cpu.statFuBusy::SimdFloatReduceCmp            0      0.00%      0.38% # attempts to use FU when none available (Count)
system.cpu.statFuBusy::SimdAes                      0      0.00%      0.38% # attempts to use FU when none available (Count)
system.cpu.statFuBusy::SimdAesMix                   0      0.00%      0.38% # attempts to use FU when none available (Count)
system.cpu.statFuBusy::SimdSha1Hash                 0      0.00%      0.38% # attempts to use FU when none available (Count)
system.cpu.statFuBusy::SimdSha1Hash2                0      0.00%      0.38% # attempts to use FU when none available (Count)
system.cpu.statFuBusy::SimdSha256Hash               0      0.00%      0.38% # attempts to use FU when none available (Count)
system.cpu.statFuBusy::SimdSha256Hash2              0      0.00%      0.38% # attempts to use FU when none available (Count)
system.cpu.statFuBusy::SimdShaSigma2                0      0.00%      0.38% # attempts to use FU when none available (Count)
system.cpu.statFuBusy::SimdShaSigma3                0      0.00%      0.38% # attempts to use FU when none available (Count)
system.cpu.statFuBusy::SimdPredAlu                  0      0.00%      0.38% # attempts to use FU when none available (Count)
system.cpu.statFuBusy::MemRead               10153441     99.47%     99.85% # attempts to use FU when none available (Count)
system.cpu.statFuBusy::MemWrite                 14989      0.15%    100.00% # attempts to use FU when none available (Count)
system.cpu.statFuBusy::FloatMemRead                 0      0.00%    100.00% # attempts to use FU when none available (Count)
system.cpu.statFuBusy::FloatMemWrite                0      0.00%    100.00% # attempts to use FU when none available (Count)
system.cpu.statFuBusy::IprAccess                    0      0.00%    100.00% # attempts to use FU when none available (Count)
system.cpu.statFuBusy::InstPrefetch                 0      0.00%    100.00% # attempts to use FU when none available (Count)
system.cpu.statIssuedInstType_0::No_OpClass          857      0.00%      0.00% # Number of instructions issued per FU type, per thread (Count)
system.cpu.statIssuedInstType_0::IntAlu      47610457     42.34%     42.34% # Number of instructions issued per FU type, per thread (Count)
system.cpu.statIssuedInstType_0::IntMult         7647      0.01%     42.35% # Number of instructions issued per FU type, per thread (Count)
system.cpu.statIssuedInstType_0::IntDiv          2716      0.00%     42.35% # Number of instructions issued per FU type, per thread (Count)
system.cpu.statIssuedInstType_0::FloatAdd            0      0.00%     42.35% # Number of instructions issued per FU type, per thread (Count)
system.cpu.statIssuedInstType_0::FloatCmp            0      0.00%     42.35% # Number of instructions issued per FU type, per thread (Count)
system.cpu.statIssuedInstType_0::FloatCvt            0      0.00%     42.35% # Number of instructions issued per FU type, per thread (Count)
system.cpu.statIssuedInstType_0::FloatMult            0      0.00%     42.35% # Number of instructions issued per FU type, per thread (Count)
system.cpu.statIssuedInstType_0::FloatMultAcc            0      0.00%     42.35% # Number of instructions issued per FU type, per thread (Count)
system.cpu.statIssuedInstType_0::FloatDiv            0      0.00%     42.35% # Number of instructions issued per FU type, per thread (Count)
system.cpu.statIssuedInstType_0::FloatMisc            2      0.00%     42.35% # Number of instructions issued per FU type, per thread (Count)
system.cpu.statIssuedInstType_0::FloatSqrt            0      0.00%     42.35% # Number of instructions issued per FU type, per thread (Count)
system.cpu.statIssuedInstType_0::SimdAdd      3128353      2.78%     45.13% # Number of instructions issued per FU type, per thread (Count)
system.cpu.statIssuedInstType_0::SimdAddAcc            0      0.00%     45.13% # Number of instructions issued per FU type, per thread (Count)
system.cpu.statIssuedInstType_0::SimdAlu          204      0.00%     45.13% # Number of instructions issued per FU type, per thread (Count)
system.cpu.statIssuedInstType_0::SimdCmp          117      0.00%     45.13% # Number of instructions issued per FU type, per thread (Count)
system.cpu.statIssuedInstType_0::SimdCvt            0      0.00%     45.13% # Number of instructions issued per FU type, per thread (Count)
system.cpu.statIssuedInstType_0::SimdMisc      3128363      2.78%     47.92% # Number of instructions issued per FU type, per thread (Count)
system.cpu.statIssuedInstType_0::SimdMult      3128306      2.78%     50.70% # Number of instructions issued per FU type, per thread (Count)
system.cpu.statIssuedInstType_0::SimdMultAcc            0      0.00%     50.70% # Number of instructions issued per FU type, per thread (Count)
system.cpu.statIssuedInstType_0::SimdShift            0      0.00%     50.70% # Number of instructions issued per FU type, per thread (Count)
system.cpu.statIssuedInstType_0::SimdShiftAcc            0      0.00%     50.70% # Number of instructions issued per FU type, per thread (Count)
system.cpu.statIssuedInstType_0::SimdDiv            0      0.00%     50.70% # Number of instructions issued per FU type, per thread (Count)
system.cpu.statIssuedInstType_0::SimdSqrt            0      0.00%     50.70% # Number of instructions issued per FU type, per thread (Count)
system.cpu.statIssuedInstType_0::SimdFloatAdd            0      0.00%     50.70% # Number of instructions issued per FU type, per thread (Count)
system.cpu.statIssuedInstType_0::SimdFloatAlu            0      0.00%     50.70% # Number of instructions issued per FU type, per thread (Count)
system.cpu.statIssuedInstType_0::SimdFloatCmp            0      0.00%     50.70% # Number of instructions issued per FU type, per thread (Count)
system.cpu.statIssuedInstType_0::SimdFloatCvt            0      0.00%     50.70% # Number of instructions issued per FU type, per thread (Count)
system.cpu.statIssuedInstType_0::SimdFloatDiv            0      0.00%     50.70% # Number of instructions issued per FU type, per thread (Count)
system.cpu.statIssuedInstType_0::SimdFloatMisc            0      0.00%     50.70% # Number of instructions issued per FU type, per thread (Count)
system.cpu.statIssuedInstType_0::SimdFloatMult            0      0.00%     50.70% # Number of instructions issued per FU type, per thread (Count)
system.cpu.statIssuedInstType_0::SimdFloatMultAcc            0      0.00%     50.70% # Number of instructions issued per FU type, per thread (Count)
system.cpu.statIssuedInstType_0::SimdFloatSqrt            0      0.00%     50.70% # Number of instructions issued per FU type, per thread (Count)
system.cpu.statIssuedInstType_0::SimdReduceAdd            0      0.00%     50.70% # Number of instructions issued per FU type, per thread (Count)
system.cpu.statIssuedInstType_0::SimdReduceAlu            0      0.00%     50.70% # Number of instructions issued per FU type, per thread (Count)
system.cpu.statIssuedInstType_0::SimdReduceCmp            0      0.00%     50.70% # Number of instructions issued per FU type, per thread (Count)
system.cpu.statIssuedInstType_0::SimdFloatReduceAdd            0      0.00%     50.70% # Number of instructions issued per FU type, per thread (Count)
system.cpu.statIssuedInstType_0::SimdFloatReduceCmp            0      0.00%     50.70% # Number of instructions issued per FU type, per thread (Count)
system.cpu.statIssuedInstType_0::SimdAes            0      0.00%     50.70% # Number of instructions issued per FU type, per thread (Count)
system.cpu.statIssuedInstType_0::SimdAesMix            0      0.00%     50.70% # Number of instructions issued per FU type, per thread (Count)
system.cpu.statIssuedInstType_0::SimdSha1Hash            0      0.00%     50.70% # Number of instructions issued per FU type, per thread (Count)
system.cpu.statIssuedInstType_0::SimdSha1Hash2            0      0.00%     50.70% # Number of instructions issued per FU type, per thread (Count)
system.cpu.statIssuedInstType_0::SimdSha256Hash            0      0.00%     50.70% # Number of instructions issued per FU type, per thread (Count)
system.cpu.statIssuedInstType_0::SimdSha256Hash2            0      0.00%     50.70% # Number of instructions issued per FU type, per thread (Count)
system.cpu.statIssuedInstType_0::SimdShaSigma2            0      0.00%     50.70% # Number of instructions issued per FU type, per thread (Count)
system.cpu.statIssuedInstType_0::SimdShaSigma3            0      0.00%     50.70% # Number of instructions issued per FU type, per thread (Count)
system.cpu.statIssuedInstType_0::SimdPredAlu            0      0.00%     50.70% # Number of instructions issued per FU type, per thread (Count)
system.cpu.statIssuedInstType_0::MemRead     52064935     46.30%     97.00% # Number of instructions issued per FU type, per thread (Count)
system.cpu.statIssuedInstType_0::MemWrite      3374080      3.00%    100.00% # Number of instructions issued per FU type, per thread (Count)
system.cpu.statIssuedInstType_0::FloatMemRead            0      0.00%    100.00% # Number of instructions issued per FU type, per thread (Count)
system.cpu.statIssuedInstType_0::FloatMemWrite            0      0.00%    100.00% # Number of instructions issued per FU type, per thread (Count)
system.cpu.statIssuedInstType_0::IprAccess            0      0.00%    100.00% # Number of instructions issued per FU type, per thread (Count)
system.cpu.statIssuedInstType_0::InstPrefetch            0      0.00%    100.00% # Number of instructions issued per FU type, per thread (Count)
system.cpu.statIssuedInstType_0::total      112446037                       # Number of instructions issued per FU type, per thread (Count)
system.cpu.issueRate                         0.605596                       # Inst issue rate ((Count/Cycle))
system.cpu.fuBusy                            10207135                       # FU busy when requested (Count)
system.cpu.fuBusyRate                        0.090774                       # FU busy rate (busy events/executed inst) ((Count/Count))
system.cpu.intInstQueueReads                346081154                       # Number of integer instruction queue reads (Count)
system.cpu.intInstQueueWrites                55748266                       # Number of integer instruction queue writes (Count)
system.cpu.intInstQueueWakeupAccesses        54542018                       # Number of integer instruction queue wakeup accesses (Count)
system.cpu.fpInstQueueReads                         0                       # Number of floating instruction queue reads (Count)
system.cpu.fpInstQueueWrites                        0                       # Number of floating instruction queue writes (Count)
system.cpu.fpInstQueueWakeupAccesses                0                       # Number of floating instruction queue wakeup accesses (Count)
system.cpu.vecInstQueueReads                 74609903                       # Number of vector instruction queue reads (Count)
system.cpu.vecInstQueueWrites                12748805                       # Number of vector instruction queue writes (Count)
system.cpu.vecInstQueueWakeupAccesses        12516314                       # Number of vector instruction queue wakeup accesses (Count)
system.cpu.intAluAccesses                    82513931                       # Number of integer alu accesses (Count)
system.cpu.fpAluAccesses                            0                       # Number of floating point alu accesses (Count)
system.cpu.vecAluAccesses                    40138384                       # Number of vector alu accesses (Count)
system.cpu.numInsts                         112373767                       # Number of executed instructions (Count)
system.cpu.numLoadInsts                      52051736                       # Number of load instructions executed (Count)
system.cpu.numSquashedInsts                     72270                       # Number of squashed instructions skipped in execute (Count)
system.cpu.numSwp                                   0                       # Number of swp insts executed (Count)
system.cpu.numNop                                 749                       # Number of nop insts executed (Count)
system.cpu.numRefs                           55424219                       # Number of memory reference insts executed (Count)
system.cpu.numBranches                        7055024                       # Number of branches executed (Count)
system.cpu.numStoreInsts                      3372483                       # Number of stores executed (Count)
system.cpu.numRate                           0.605206                       # Inst execution rate ((Count/Cycle))
system.cpu.timesIdled                            1457                       # Number of times that the entire CPU went into an idle state and unscheduled itself (Count)
system.cpu.idleCycles                          139847                       # Total number of cycles that the CPU has spent unscheduled due to idling (Cycle)
system.cpu.committedInsts                    66396369                       # Number of Instructions Simulated (Count)
system.cpu.committedOps                      66667466                       # Number of Ops (including micro ops) Simulated (Count)
system.cpu.cpi                               2.796514                       # CPI: Cycles Per Instruction ((Cycle/Count))
system.cpu.totalCpi                          2.796514                       # CPI: Total CPI of All Threads ((Cycle/Count))
system.cpu.ipc                               0.357588                       # IPC: Instructions Per Cycle ((Count/Cycle))
system.cpu.totalIpc                          0.357588                       # IPC: Total IPC of All Threads ((Count/Cycle))
system.cpu.intRegfileReads                  173999935                       # Number of integer regfile reads (Count)
system.cpu.intRegfileWrites                  37302217                       # Number of integer regfile writes (Count)
system.cpu.vecRegfileReads                   21902106                       # number of vector regfile reads (Count)
system.cpu.ccRegfileReads                    30093153                       # number of cc regfile reads (Count)
system.cpu.ccRegfileWrites                   30090741                       # number of cc regfile writes (Count)
system.cpu.miscRegfileReads                  72533286                       # number of misc regfile reads (Count)
system.cpu.miscRegfileWrites                      213                       # number of misc regfile writes (Count)
system.cpu.MemDepUnit__0.insertedLoads        6858335                       # Number of loads inserted to the mem dependence unit. (Count)
system.cpu.MemDepUnit__0.insertedStores       3408552                       # Number of stores inserted to the mem dependence unit. (Count)
system.cpu.MemDepUnit__0.conflictingLoads         9341                       # Number of conflicting loads. (Count)
system.cpu.MemDepUnit__0.conflictingStores        13394                       # Number of conflicting stores. (Count)
system.cpu.MemDepUnit__1.insertedLoads              0                       # Number of loads inserted to the mem dependence unit. (Count)
system.cpu.MemDepUnit__1.insertedStores             0                       # Number of stores inserted to the mem dependence unit. (Count)
system.cpu.MemDepUnit__1.conflictingLoads            0                       # Number of conflicting loads. (Count)
system.cpu.MemDepUnit__1.conflictingStores            0                       # Number of conflicting stores. (Count)
system.cpu.MemDepUnit__2.insertedLoads              0                       # Number of loads inserted to the mem dependence unit. (Count)
system.cpu.MemDepUnit__2.insertedStores             0                       # Number of stores inserted to the mem dependence unit. (Count)
system.cpu.MemDepUnit__2.conflictingLoads            0                       # Number of conflicting loads. (Count)
system.cpu.MemDepUnit__2.conflictingStores            0                       # Number of conflicting stores. (Count)
system.cpu.MemDepUnit__3.insertedLoads              0                       # Number of loads inserted to the mem dependence unit. (Count)
system.cpu.MemDepUnit__3.insertedStores             0                       # Number of stores inserted to the mem dependence unit. (Count)
system.cpu.MemDepUnit__3.conflictingLoads            0                       # Number of conflicting loads. (Count)
system.cpu.MemDepUnit__3.conflictingStores            0                       # Number of conflicting stores. (Count)
system.cpu.branchPred.lookups                 7322791                       # Number of BP lookups (Count)
system.cpu.branchPred.condPredicted           7188128                       # Number of conditional branches predicted (Count)
system.cpu.branchPred.condIncorrect             45054                       # Number of conditional branches incorrect (Count)
system.cpu.branchPred.BTBLookups              3737918                       # Number of BTB lookups (Count)
system.cpu.branchPred.BTBUpdates                36916                       # Number of BTB updates (Count)
system.cpu.branchPred.BTBHits                 3735095                       # Number of BTB hits (Count)
system.cpu.branchPred.BTBHitRatio            0.999245                       # BTB Hit Ratio (Ratio)
system.cpu.branchPred.RASUsed                   17517                       # Number of times the RAS was used to get a target. (Count)
system.cpu.branchPred.RASIncorrect                 40                       # Number of incorrect RAS predictions. (Count)
system.cpu.branchPred.indirectLookups            6655                       # Number of indirect predictor lookups. (Count)
system.cpu.branchPred.indirectHits               1334                       # Number of indirect target hits. (Count)
system.cpu.branchPred.indirectMisses             5321                       # Number of indirect misses. (Count)
system.cpu.branchPred.indirectMispredicted          666                       # Number of mispredicted indirect branches. (Count)
system.cpu.commit.commitSquashedInsts          903246                       # The number of squashed insts skipped by commit (Count)
system.cpu.commit.commitNonSpecStalls             273                       # The number of times commit has been forced to stall to communicate backwards (Count)
system.cpu.commit.branchMispredicts             44930                       # The number of times a branch was mispredicted (Count)
system.cpu.commit.numCommittedDist::samples    185390189                       # Number of insts commited each cycle (Count)
system.cpu.commit.numCommittedDist::mean     0.359608                       # Number of insts commited each cycle (Count)
system.cpu.commit.numCommittedDist::stdev     1.487209                       # Number of insts commited each cycle (Count)
system.cpu.commit.numCommittedDist::underflows            0      0.00%      0.00% # Number of insts commited each cycle (Count)
system.cpu.commit.numCommittedDist::0       171888337     92.72%     92.72% # Number of insts commited each cycle (Count)
system.cpu.commit.numCommittedDist::1         3529639      1.90%     94.62% # Number of insts commited each cycle (Count)
system.cpu.commit.numCommittedDist::2           74491      0.04%     94.66% # Number of insts commited each cycle (Count)
system.cpu.commit.numCommittedDist::3           78015      0.04%     94.70% # Number of insts commited each cycle (Count)
system.cpu.commit.numCommittedDist::4         3118100      1.68%     96.39% # Number of insts commited each cycle (Count)
system.cpu.commit.numCommittedDist::5           18044      0.01%     96.39% # Number of insts commited each cycle (Count)
system.cpu.commit.numCommittedDist::6          269609      0.15%     96.54% # Number of insts commited each cycle (Count)
system.cpu.commit.numCommittedDist::7         2736732      1.48%     98.02% # Number of insts commited each cycle (Count)
system.cpu.commit.numCommittedDist::8         3677222      1.98%    100.00% # Number of insts commited each cycle (Count)
system.cpu.commit.numCommittedDist::overflows            0      0.00%    100.00% # Number of insts commited each cycle (Count)
system.cpu.commit.numCommittedDist::min_value            0                       # Number of insts commited each cycle (Count)
system.cpu.commit.numCommittedDist::max_value            8                       # Number of insts commited each cycle (Count)
system.cpu.commit.numCommittedDist::total    185390189                       # Number of insts commited each cycle (Count)
system.cpu.commit.instsCommitted             66396743                       # Number of instructions committed (Count)
system.cpu.commit.opsCommitted               66667840                       # Number of ops (including micro ops) committed (Count)
system.cpu.commit.memRefs                    10032347                       # Number of memory references committed (Count)
system.cpu.commit.loads                       6689992                       # Number of loads committed (Count)
system.cpu.commit.amos                            106                       # Number of atomic instructions committed (Count)
system.cpu.commit.membars                         114                       # Number of memory barriers committed (Count)
system.cpu.commit.branches                    6995050                       # Number of branches committed (Count)
system.cpu.commit.vectorInstructions         12506559                       # Number of committed Vector instructions. (Count)
system.cpu.commit.floating                          0                       # Number of committed floating point instructions. (Count)
system.cpu.commit.integer                    53636532                       # Number of committed integer instructions. (Count)
system.cpu.commit.functionCalls                 11005                       # Number of function calls committed. (Count)
system.cpu.commit.committedInstType_0::No_OpClass          129      0.00%      0.00% # Class of committed instruction (Count)
system.cpu.commit.committedInstType_0::IntAlu     47247835     70.87%     70.87% # Class of committed instruction (Count)
system.cpu.commit.committedInstType_0::IntMult         7070      0.01%     70.88% # Class of committed instruction (Count)
system.cpu.commit.committedInstType_0::IntDiv         2567      0.00%     70.89% # Class of committed instruction (Count)
system.cpu.commit.committedInstType_0::FloatAdd            0      0.00%     70.89% # Class of committed instruction (Count)
system.cpu.commit.committedInstType_0::FloatCmp            0      0.00%     70.89% # Class of committed instruction (Count)
system.cpu.commit.committedInstType_0::FloatCvt            0      0.00%     70.89% # Class of committed instruction (Count)
system.cpu.commit.committedInstType_0::FloatMult            0      0.00%     70.89% # Class of committed instruction (Count)
system.cpu.commit.committedInstType_0::FloatMultAcc            0      0.00%     70.89% # Class of committed instruction (Count)
system.cpu.commit.committedInstType_0::FloatDiv            0      0.00%     70.89% # Class of committed instruction (Count)
system.cpu.commit.committedInstType_0::FloatMisc            2      0.00%     70.89% # Class of committed instruction (Count)
system.cpu.commit.committedInstType_0::FloatSqrt            0      0.00%     70.89% # Class of committed instruction (Count)
system.cpu.commit.committedInstType_0::SimdAdd      3125899      4.69%     75.57% # Class of committed instruction (Count)
system.cpu.commit.committedInstType_0::SimdAddAcc            0      0.00%     75.57% # Class of committed instruction (Count)
system.cpu.commit.committedInstType_0::SimdAlu          151      0.00%     75.57% # Class of committed instruction (Count)
system.cpu.commit.committedInstType_0::SimdCmp           93      0.00%     75.57% # Class of committed instruction (Count)
system.cpu.commit.committedInstType_0::SimdCvt            0      0.00%     75.57% # Class of committed instruction (Count)
system.cpu.commit.committedInstType_0::SimdMisc      3125923      4.69%     80.26% # Class of committed instruction (Count)
system.cpu.commit.committedInstType_0::SimdMult      3125824      4.69%     84.95% # Class of committed instruction (Count)
system.cpu.commit.committedInstType_0::SimdMultAcc            0      0.00%     84.95% # Class of committed instruction (Count)
system.cpu.commit.committedInstType_0::SimdShift            0      0.00%     84.95% # Class of committed instruction (Count)
system.cpu.commit.committedInstType_0::SimdShiftAcc            0      0.00%     84.95% # Class of committed instruction (Count)
system.cpu.commit.committedInstType_0::SimdDiv            0      0.00%     84.95% # Class of committed instruction (Count)
system.cpu.commit.committedInstType_0::SimdSqrt            0      0.00%     84.95% # Class of committed instruction (Count)
system.cpu.commit.committedInstType_0::SimdFloatAdd            0      0.00%     84.95% # Class of committed instruction (Count)
system.cpu.commit.committedInstType_0::SimdFloatAlu            0      0.00%     84.95% # Class of committed instruction (Count)
system.cpu.commit.committedInstType_0::SimdFloatCmp            0      0.00%     84.95% # Class of committed instruction (Count)
system.cpu.commit.committedInstType_0::SimdFloatCvt            0      0.00%     84.95% # Class of committed instruction (Count)
system.cpu.commit.committedInstType_0::SimdFloatDiv            0      0.00%     84.95% # Class of committed instruction (Count)
system.cpu.commit.committedInstType_0::SimdFloatMisc            0      0.00%     84.95% # Class of committed instruction (Count)
system.cpu.commit.committedInstType_0::SimdFloatMult            0      0.00%     84.95% # Class of committed instruction (Count)
system.cpu.commit.committedInstType_0::SimdFloatMultAcc            0      0.00%     84.95% # Class of committed instruction (Count)
system.cpu.commit.committedInstType_0::SimdFloatSqrt            0      0.00%     84.95% # Class of committed instruction (Count)
system.cpu.commit.committedInstType_0::SimdReduceAdd            0      0.00%     84.95% # Class of committed instruction (Count)
system.cpu.commit.committedInstType_0::SimdReduceAlu            0      0.00%     84.95% # Class of committed instruction (Count)
system.cpu.commit.committedInstType_0::SimdReduceCmp            0      0.00%     84.95% # Class of committed instruction (Count)
system.cpu.commit.committedInstType_0::SimdFloatReduceAdd            0      0.00%     84.95% # Class of committed instruction (Count)
system.cpu.commit.committedInstType_0::SimdFloatReduceCmp            0      0.00%     84.95% # Class of committed instruction (Count)
system.cpu.commit.committedInstType_0::SimdAes            0      0.00%     84.95% # Class of committed instruction (Count)
system.cpu.commit.committedInstType_0::SimdAesMix            0      0.00%     84.95% # Class of committed instruction (Count)
system.cpu.commit.committedInstType_0::SimdSha1Hash            0      0.00%     84.95% # Class of committed instruction (Count)
system.cpu.commit.committedInstType_0::SimdSha1Hash2            0      0.00%     84.95% # Class of committed instruction (Count)
system.cpu.commit.committedInstType_0::SimdSha256Hash            0      0.00%     84.95% # Class of committed instruction (Count)
system.cpu.commit.committedInstType_0::SimdSha256Hash2            0      0.00%     84.95% # Class of committed instruction (Count)
system.cpu.commit.committedInstType_0::SimdShaSigma2            0      0.00%     84.95% # Class of committed instruction (Count)
system.cpu.commit.committedInstType_0::SimdShaSigma3            0      0.00%     84.95% # Class of committed instruction (Count)
system.cpu.commit.committedInstType_0::SimdPredAlu            0      0.00%     84.95% # Class of committed instruction (Count)
system.cpu.commit.committedInstType_0::MemRead      6689992     10.03%     94.99% # Class of committed instruction (Count)
system.cpu.commit.committedInstType_0::MemWrite      3342355      5.01%    100.00% # Class of committed instruction (Count)
system.cpu.commit.committedInstType_0::FloatMemRead            0      0.00%    100.00% # Class of committed instruction (Count)
system.cpu.commit.committedInstType_0::FloatMemWrite            0      0.00%    100.00% # Class of committed instruction (Count)
system.cpu.commit.committedInstType_0::IprAccess            0      0.00%    100.00% # Class of committed instruction (Count)
system.cpu.commit.committedInstType_0::InstPrefetch            0      0.00%    100.00% # Class of committed instruction (Count)
system.cpu.commit.committedInstType_0::total     66667840                       # Class of committed instruction (Count)
system.cpu.commit.commitEligibleSamples       3677222                       # number cycles where commit BW limit reached (Cycle)
system.cpu.dcache.demandHits::cpu.data        5471665                       # number of demand (read+write) hits (Count)
system.cpu.dcache.demandHits::total           5471665                       # number of demand (read+write) hits (Count)
system.cpu.dcache.overallHits::cpu.data       5471665                       # number of overall hits (Count)
system.cpu.dcache.overallHits::total          5471665                       # number of overall hits (Count)
system.cpu.dcache.demandMisses::cpu.data      4615118                       # number of demand (read+write) misses (Count)
system.cpu.dcache.demandMisses::total         4615118                       # number of demand (read+write) misses (Count)
system.cpu.dcache.overallMisses::cpu.data      4615118                       # number of overall misses (Count)
system.cpu.dcache.overallMisses::total        4615118                       # number of overall misses (Count)
system.cpu.dcache.demandMissLatency::cpu.data 398539258486                       # number of demand (read+write) miss ticks (Tick)
system.cpu.dcache.demandMissLatency::total 398539258486                       # number of demand (read+write) miss ticks (Tick)
system.cpu.dcache.overallMissLatency::cpu.data 398539258486                       # number of overall miss ticks (Tick)
system.cpu.dcache.overallMissLatency::total 398539258486                       # number of overall miss ticks (Tick)
system.cpu.dcache.demandAccesses::cpu.data     10086783                       # number of demand (read+write) accesses (Count)
system.cpu.dcache.demandAccesses::total      10086783                       # number of demand (read+write) accesses (Count)
system.cpu.dcache.overallAccesses::cpu.data     10086783                       # number of overall (read+write) accesses (Count)
system.cpu.dcache.overallAccesses::total     10086783                       # number of overall (read+write) accesses (Count)
system.cpu.dcache.demandMissRate::cpu.data     0.457541                       # miss rate for demand accesses (Ratio)
system.cpu.dcache.demandMissRate::total      0.457541                       # miss rate for demand accesses (Ratio)
system.cpu.dcache.overallMissRate::cpu.data     0.457541                       # miss rate for overall accesses (Ratio)
system.cpu.dcache.overallMissRate::total     0.457541                       # miss rate for overall accesses (Ratio)
system.cpu.dcache.demandAvgMissLatency::cpu.data 86355.161122                       # average overall miss latency in ticks ((Tick/Count))
system.cpu.dcache.demandAvgMissLatency::total 86355.161122                       # average overall miss latency in ticks ((Tick/Count))
system.cpu.dcache.overallAvgMissLatency::cpu.data 86355.161122                       # average overall miss latency ((Tick/Count))
system.cpu.dcache.overallAvgMissLatency::total 86355.161122                       # average overall miss latency ((Tick/Count))
system.cpu.dcache.blockedCycles::no_mshrs    176023933                       # number of cycles access was blocked (Cycle)
system.cpu.dcache.blockedCycles::no_targets          624                       # number of cycles access was blocked (Cycle)
system.cpu.dcache.blockedCauses::no_mshrs      3918596                       # number of times access was blocked (Count)
system.cpu.dcache.blockedCauses::no_targets            9                       # number of times access was blocked (Count)
system.cpu.dcache.avgBlocked::no_mshrs      44.920153                       # average number of cycles each access was blocked ((Cycle/Count))
system.cpu.dcache.avgBlocked::no_targets    69.333333                       # average number of cycles each access was blocked ((Cycle/Count))
system.cpu.dcache.writebacks::writebacks      3128483                       # number of writebacks (Count)
system.cpu.dcache.writebacks::total           3128483                       # number of writebacks (Count)
system.cpu.dcache.demandMshrHits::cpu.data       680228                       # number of demand (read+write) MSHR hits (Count)
system.cpu.dcache.demandMshrHits::total        680228                       # number of demand (read+write) MSHR hits (Count)
system.cpu.dcache.overallMshrHits::cpu.data       680228                       # number of overall MSHR hits (Count)
system.cpu.dcache.overallMshrHits::total       680228                       # number of overall MSHR hits (Count)
system.cpu.dcache.demandMshrMisses::cpu.data      3934890                       # number of demand (read+write) MSHR misses (Count)
system.cpu.dcache.demandMshrMisses::total      3934890                       # number of demand (read+write) MSHR misses (Count)
system.cpu.dcache.overallMshrMisses::cpu.data      3934890                       # number of overall MSHR misses (Count)
system.cpu.dcache.overallMshrMisses::total      3934890                       # number of overall MSHR misses (Count)
system.cpu.dcache.demandMshrMissLatency::cpu.data 364422916698                       # number of demand (read+write) MSHR miss ticks (Tick)
system.cpu.dcache.demandMshrMissLatency::total 364422916698                       # number of demand (read+write) MSHR miss ticks (Tick)
system.cpu.dcache.overallMshrMissLatency::cpu.data 364422916698                       # number of overall MSHR miss ticks (Tick)
system.cpu.dcache.overallMshrMissLatency::total 364422916698                       # number of overall MSHR miss ticks (Tick)
system.cpu.dcache.demandMshrMissRate::cpu.data     0.390104                       # mshr miss ratio for demand accesses (Ratio)
system.cpu.dcache.demandMshrMissRate::total     0.390104                       # mshr miss ratio for demand accesses (Ratio)
system.cpu.dcache.overallMshrMissRate::cpu.data     0.390104                       # mshr miss ratio for overall accesses (Ratio)
system.cpu.dcache.overallMshrMissRate::total     0.390104                       # mshr miss ratio for overall accesses (Ratio)
system.cpu.dcache.demandAvgMshrMissLatency::cpu.data 92613.241208                       # average overall mshr miss latency ((Tick/Count))
system.cpu.dcache.demandAvgMshrMissLatency::total 92613.241208                       # average overall mshr miss latency ((Tick/Count))
system.cpu.dcache.overallAvgMshrMissLatency::cpu.data 92613.241208                       # average overall mshr miss latency ((Tick/Count))
system.cpu.dcache.overallAvgMshrMissLatency::total 92613.241208                       # average overall mshr miss latency ((Tick/Count))
system.cpu.dcache.replacements                3933872                       # number of replacements (Count)
system.cpu.dcache.ReadReq.hits::cpu.data      2135124                       # number of ReadReq hits (Count)
system.cpu.dcache.ReadReq.hits::total         2135124                       # number of ReadReq hits (Count)
system.cpu.dcache.ReadReq.misses::cpu.data      4609396                       # number of ReadReq misses (Count)
system.cpu.dcache.ReadReq.misses::total       4609396                       # number of ReadReq misses (Count)
system.cpu.dcache.ReadReq.missLatency::cpu.data 398205187000                       # number of ReadReq miss ticks (Tick)
system.cpu.dcache.ReadReq.missLatency::total 398205187000                       # number of ReadReq miss ticks (Tick)
system.cpu.dcache.ReadReq.accesses::cpu.data      6744520                       # number of ReadReq accesses(hits+misses) (Count)
system.cpu.dcache.ReadReq.accesses::total      6744520                       # number of ReadReq accesses(hits+misses) (Count)
system.cpu.dcache.ReadReq.missRate::cpu.data     0.683428                       # miss rate for ReadReq accesses (Ratio)
system.cpu.dcache.ReadReq.missRate::total     0.683428                       # miss rate for ReadReq accesses (Ratio)
system.cpu.dcache.ReadReq.avgMissLatency::cpu.data 86389.884271                       # average ReadReq miss latency ((Tick/Count))
system.cpu.dcache.ReadReq.avgMissLatency::total 86389.884271                       # average ReadReq miss latency ((Tick/Count))
system.cpu.dcache.ReadReq.mshrHits::cpu.data       676764                       # number of ReadReq MSHR hits (Count)
system.cpu.dcache.ReadReq.mshrHits::total       676764                       # number of ReadReq MSHR hits (Count)
system.cpu.dcache.ReadReq.mshrMisses::cpu.data      3932632                       # number of ReadReq MSHR misses (Count)
system.cpu.dcache.ReadReq.mshrMisses::total      3932632                       # number of ReadReq MSHR misses (Count)
system.cpu.dcache.ReadReq.mshrMissLatency::cpu.data 364289910500                       # number of ReadReq MSHR miss ticks (Tick)
system.cpu.dcache.ReadReq.mshrMissLatency::total 364289910500                       # number of ReadReq MSHR miss ticks (Tick)
system.cpu.dcache.ReadReq.mshrMissRate::cpu.data     0.583086                       # mshr miss rate for ReadReq accesses (Ratio)
system.cpu.dcache.ReadReq.mshrMissRate::total     0.583086                       # mshr miss rate for ReadReq accesses (Ratio)
system.cpu.dcache.ReadReq.avgMshrMissLatency::cpu.data 92632.595804                       # average ReadReq mshr miss latency ((Tick/Count))
system.cpu.dcache.ReadReq.avgMshrMissLatency::total 92632.595804                       # average ReadReq mshr miss latency ((Tick/Count))
system.cpu.dcache.SwapReq.hits::cpu.data          100                       # number of SwapReq hits (Count)
system.cpu.dcache.SwapReq.hits::total             100                       # number of SwapReq hits (Count)
system.cpu.dcache.SwapReq.misses::cpu.data            6                       # number of SwapReq misses (Count)
system.cpu.dcache.SwapReq.misses::total             6                       # number of SwapReq misses (Count)
system.cpu.dcache.SwapReq.missLatency::cpu.data       610000                       # number of SwapReq miss ticks (Tick)
system.cpu.dcache.SwapReq.missLatency::total       610000                       # number of SwapReq miss ticks (Tick)
system.cpu.dcache.SwapReq.accesses::cpu.data          106                       # number of SwapReq accesses(hits+misses) (Count)
system.cpu.dcache.SwapReq.accesses::total          106                       # number of SwapReq accesses(hits+misses) (Count)
system.cpu.dcache.SwapReq.missRate::cpu.data     0.056604                       # miss rate for SwapReq accesses (Ratio)
system.cpu.dcache.SwapReq.missRate::total     0.056604                       # miss rate for SwapReq accesses (Ratio)
system.cpu.dcache.SwapReq.avgMissLatency::cpu.data 101666.666667                       # average SwapReq miss latency ((Tick/Count))
system.cpu.dcache.SwapReq.avgMissLatency::total 101666.666667                       # average SwapReq miss latency ((Tick/Count))
system.cpu.dcache.SwapReq.mshrMisses::cpu.data            6                       # number of SwapReq MSHR misses (Count)
system.cpu.dcache.SwapReq.mshrMisses::total            6                       # number of SwapReq MSHR misses (Count)
system.cpu.dcache.SwapReq.mshrMissLatency::cpu.data       604000                       # number of SwapReq MSHR miss ticks (Tick)
system.cpu.dcache.SwapReq.mshrMissLatency::total       604000                       # number of SwapReq MSHR miss ticks (Tick)
system.cpu.dcache.SwapReq.mshrMissRate::cpu.data     0.056604                       # mshr miss rate for SwapReq accesses (Ratio)
system.cpu.dcache.SwapReq.mshrMissRate::total     0.056604                       # mshr miss rate for SwapReq accesses (Ratio)
system.cpu.dcache.SwapReq.avgMshrMissLatency::cpu.data 100666.666667                       # average SwapReq mshr miss latency ((Tick/Count))
system.cpu.dcache.SwapReq.avgMshrMissLatency::total 100666.666667                       # average SwapReq mshr miss latency ((Tick/Count))
system.cpu.dcache.WriteLineReq.misses::cpu.data          131                       # number of WriteLineReq misses (Count)
system.cpu.dcache.WriteLineReq.misses::total          131                       # number of WriteLineReq misses (Count)
system.cpu.dcache.WriteLineReq.missLatency::cpu.data      4173908                       # number of WriteLineReq miss ticks (Tick)
system.cpu.dcache.WriteLineReq.missLatency::total      4173908                       # number of WriteLineReq miss ticks (Tick)
system.cpu.dcache.WriteLineReq.accesses::cpu.data          131                       # number of WriteLineReq accesses(hits+misses) (Count)
system.cpu.dcache.WriteLineReq.accesses::total          131                       # number of WriteLineReq accesses(hits+misses) (Count)
system.cpu.dcache.WriteLineReq.missRate::cpu.data            1                       # miss rate for WriteLineReq accesses (Ratio)
system.cpu.dcache.WriteLineReq.missRate::total            1                       # miss rate for WriteLineReq accesses (Ratio)
system.cpu.dcache.WriteLineReq.avgMissLatency::cpu.data 31861.893130                       # average WriteLineReq miss latency ((Tick/Count))
system.cpu.dcache.WriteLineReq.avgMissLatency::total 31861.893130                       # average WriteLineReq miss latency ((Tick/Count))
system.cpu.dcache.WriteLineReq.mshrMisses::cpu.data          131                       # number of WriteLineReq MSHR misses (Count)
system.cpu.dcache.WriteLineReq.mshrMisses::total          131                       # number of WriteLineReq MSHR misses (Count)
system.cpu.dcache.WriteLineReq.mshrMissLatency::cpu.data      4042908                       # number of WriteLineReq MSHR miss ticks (Tick)
system.cpu.dcache.WriteLineReq.mshrMissLatency::total      4042908                       # number of WriteLineReq MSHR miss ticks (Tick)
system.cpu.dcache.WriteLineReq.mshrMissRate::cpu.data            1                       # mshr miss rate for WriteLineReq accesses (Ratio)
system.cpu.dcache.WriteLineReq.mshrMissRate::total            1                       # mshr miss rate for WriteLineReq accesses (Ratio)
system.cpu.dcache.WriteLineReq.avgMshrMissLatency::cpu.data 30861.893130                       # average WriteLineReq mshr miss latency ((Tick/Count))
system.cpu.dcache.WriteLineReq.avgMshrMissLatency::total 30861.893130                       # average WriteLineReq mshr miss latency ((Tick/Count))
system.cpu.dcache.WriteReq.hits::cpu.data      3336541                       # number of WriteReq hits (Count)
system.cpu.dcache.WriteReq.hits::total        3336541                       # number of WriteReq hits (Count)
system.cpu.dcache.WriteReq.misses::cpu.data         5591                       # number of WriteReq misses (Count)
system.cpu.dcache.WriteReq.misses::total         5591                       # number of WriteReq misses (Count)
system.cpu.dcache.WriteReq.missLatency::cpu.data    329897578                       # number of WriteReq miss ticks (Tick)
system.cpu.dcache.WriteReq.missLatency::total    329897578                       # number of WriteReq miss ticks (Tick)
system.cpu.dcache.WriteReq.accesses::cpu.data      3342132                       # number of WriteReq accesses(hits+misses) (Count)
system.cpu.dcache.WriteReq.accesses::total      3342132                       # number of WriteReq accesses(hits+misses) (Count)
system.cpu.dcache.WriteReq.missRate::cpu.data     0.001673                       # miss rate for WriteReq accesses (Ratio)
system.cpu.dcache.WriteReq.missRate::total     0.001673                       # miss rate for WriteReq accesses (Ratio)
system.cpu.dcache.WriteReq.avgMissLatency::cpu.data 59005.111429                       # average WriteReq miss latency ((Tick/Count))
system.cpu.dcache.WriteReq.avgMissLatency::total 59005.111429                       # average WriteReq miss latency ((Tick/Count))
system.cpu.dcache.WriteReq.mshrHits::cpu.data         3464                       # number of WriteReq MSHR hits (Count)
system.cpu.dcache.WriteReq.mshrHits::total         3464                       # number of WriteReq MSHR hits (Count)
system.cpu.dcache.WriteReq.mshrMisses::cpu.data         2127                       # number of WriteReq MSHR misses (Count)
system.cpu.dcache.WriteReq.mshrMisses::total         2127                       # number of WriteReq MSHR misses (Count)
system.cpu.dcache.WriteReq.mshrMissLatency::cpu.data    128963290                       # number of WriteReq MSHR miss ticks (Tick)
system.cpu.dcache.WriteReq.mshrMissLatency::total    128963290                       # number of WriteReq MSHR miss ticks (Tick)
system.cpu.dcache.WriteReq.mshrMissRate::cpu.data     0.000636                       # mshr miss rate for WriteReq accesses (Ratio)
system.cpu.dcache.WriteReq.mshrMissRate::total     0.000636                       # mshr miss rate for WriteReq accesses (Ratio)
system.cpu.dcache.WriteReq.avgMshrMissLatency::cpu.data 60631.542078                       # average WriteReq mshr miss latency ((Tick/Count))
system.cpu.dcache.WriteReq.avgMshrMissLatency::total 60631.542078                       # average WriteReq mshr miss latency ((Tick/Count))
system.cpu.dcache.power_state.pwrStateResidencyTicks::UNDEFINED  92839193000                       # Cumulative time (in ticks) in various power states (Tick)
system.cpu.dcache.tags.tagsInUse          1023.598461                       # Average ticks per tags in use ((Tick/Count))
system.cpu.dcache.tags.totalRefs              9406661                       # Total number of references to valid blocks. (Count)
system.cpu.dcache.tags.sampledRefs            3934896                       # Sample count of references to valid blocks. (Count)
system.cpu.dcache.tags.avgRefs               2.390574                       # Average number of references to valid blocks. ((Count/Count))
system.cpu.dcache.tags.warmupTick              253500                       # The tick when the warmup percentage was hit. (Tick)
system.cpu.dcache.tags.occupancies::cpu.data  1023.598461                       # Average occupied blocks per tick, per requestor ((Count/Tick))
system.cpu.dcache.tags.avgOccs::cpu.data     0.999608                       # Average percentage of cache occupancy ((Ratio/Tick))
system.cpu.dcache.tags.avgOccs::total        0.999608                       # Average percentage of cache occupancy ((Ratio/Tick))
system.cpu.dcache.tags.occupanciesTaskId::1024         1024                       # Occupied blocks per task id (Count)
system.cpu.dcache.tags.ageTaskId_1024::0           86                       # Occupied blocks per task id, per block age (Count)
system.cpu.dcache.tags.ageTaskId_1024::1          853                       # Occupied blocks per task id, per block age (Count)
system.cpu.dcache.tags.ageTaskId_1024::2           84                       # Occupied blocks per task id, per block age (Count)
system.cpu.dcache.tags.ageTaskId_1024::4            1                       # Occupied blocks per task id, per block age (Count)
system.cpu.dcache.tags.ratioOccsTaskId::1024            1                       # Ratio of occupied blocks and all blocks, per task id (Ratio)
system.cpu.dcache.tags.tagAccesses           44282452                       # Number of tag accesses (Count)
system.cpu.dcache.tags.dataAccesses          44282452                       # Number of data accesses (Count)
system.cpu.dcache.tags.power_state.pwrStateResidencyTicks::UNDEFINED  92839193000                       # Cumulative time (in ticks) in various power states (Tick)
system.cpu.decode.idleCycles                  2672488                       # Number of cycles decode is idle (Cycle)
system.cpu.decode.blockedCycles             173948094                       # Number of cycles decode is blocked (Cycle)
system.cpu.decode.runCycles                   2989986                       # Number of cycles decode is running (Cycle)
system.cpu.decode.unblockCycles               5882120                       # Number of cycles decode is unblocking (Cycle)
system.cpu.decode.squashCycles                  45853                       # Number of cycles decode is squashing (Cycle)
system.cpu.decode.branchResolved              3658750                       # Number of times decode resolved a branch (Count)
system.cpu.decode.branchMispred                   833                       # Number of times decode detected a branch misprediction (Count)
system.cpu.decode.decodedInsts               68045860                       # Number of instructions handled by decode (Count)
system.cpu.decode.squashedInsts                  2815                       # Number of squashed instructions handled by decode (Count)
system.cpu.fetch.icacheStallCycles           10350473                       # Number of cycles fetch is stalled on an Icache miss (Cycle)
system.cpu.fetch.insts                       68810975                       # Number of instructions fetch has processed (Count)
system.cpu.fetch.branches                     7322791                       # Number of branches that fetch encountered (Count)
system.cpu.fetch.predictedBranches            3753946                       # Number of branches that fetch has predicted taken (Count)
system.cpu.fetch.cycles                     175135877                       # Number of cycles fetch has run and was not squashing or blocked (Cycle)
system.cpu.fetch.squashCycles                   93328                       # Number of cycles fetch has spent squashing (Cycle)
system.cpu.fetch.miscStallCycles                  724                       # Number of cycles fetch has spent waiting on interrupts, or bad addresses, or out of MSHRs (Cycle)
system.cpu.fetch.pendingTrapStallCycles          4759                       # Number of stall cycles due to pending traps (Cycle)
system.cpu.fetch.icacheWaitRetryStallCycles           44                       # Number of stall cycles due to full MSHR (Cycle)
system.cpu.fetch.cacheLines                  10292571                       # Number of cache lines fetched (Count)
system.cpu.fetch.icacheSquashes                 16155                       # Number of outstanding Icache misses that were squashed (Count)
system.cpu.fetch.nisnDist::samples          185538541                       # Number of instructions fetched each cycle (Total) (Count)
system.cpu.fetch.nisnDist::mean              0.372912                       # Number of instructions fetched each cycle (Total) (Count)
system.cpu.fetch.nisnDist::stdev             1.496550                       # Number of instructions fetched each cycle (Total) (Count)
system.cpu.fetch.nisnDist::underflows               0      0.00%      0.00% # Number of instructions fetched each cycle (Total) (Count)
system.cpu.fetch.nisnDist::0                170192860     91.73%     91.73% # Number of instructions fetched each cycle (Total) (Count)
system.cpu.fetch.nisnDist::1                  4042721      2.18%     93.91% # Number of instructions fetched each cycle (Total) (Count)
system.cpu.fetch.nisnDist::2                   226345      0.12%     94.03% # Number of instructions fetched each cycle (Total) (Count)
system.cpu.fetch.nisnDist::3                  3706654      2.00%     96.03% # Number of instructions fetched each cycle (Total) (Count)
system.cpu.fetch.nisnDist::4                   764598      0.41%     96.44% # Number of instructions fetched each cycle (Total) (Count)
system.cpu.fetch.nisnDist::5                   472522      0.25%     96.69% # Number of instructions fetched each cycle (Total) (Count)
system.cpu.fetch.nisnDist::6                    65707      0.04%     96.73% # Number of instructions fetched each cycle (Total) (Count)
system.cpu.fetch.nisnDist::7                   778103      0.42%     97.15% # Number of instructions fetched each cycle (Total) (Count)
system.cpu.fetch.nisnDist::8                  5289031      2.85%    100.00% # Number of instructions fetched each cycle (Total) (Count)
system.cpu.fetch.nisnDist::overflows                0      0.00%    100.00% # Number of instructions fetched each cycle (Total) (Count)
system.cpu.fetch.nisnDist::min_value                0                       # Number of instructions fetched each cycle (Total) (Count)
system.cpu.fetch.nisnDist::max_value                8                       # Number of instructions fetched each cycle (Total) (Count)
system.cpu.fetch.nisnDist::total            185538541                       # Number of instructions fetched each cycle (Total) (Count)
system.cpu.fetch.branchRate                  0.039438                       # Number of branch fetches per cycle (Ratio)
system.cpu.fetch.rate                        0.370592                       # Number of inst fetches per cycle ((Count/Cycle))
system.cpu.icache.demandHits::cpu.inst       10289966                       # number of demand (read+write) hits (Count)
system.cpu.icache.demandHits::total          10289966                       # number of demand (read+write) hits (Count)
system.cpu.icache.overallHits::cpu.inst      10289966                       # number of overall hits (Count)
system.cpu.icache.overallHits::total         10289966                       # number of overall hits (Count)
system.cpu.icache.demandMisses::cpu.inst         2605                       # number of demand (read+write) misses (Count)
system.cpu.icache.demandMisses::total            2605                       # number of demand (read+write) misses (Count)
system.cpu.icache.overallMisses::cpu.inst         2605                       # number of overall misses (Count)
system.cpu.icache.overallMisses::total           2605                       # number of overall misses (Count)
system.cpu.icache.demandMissLatency::cpu.inst    176167498                       # number of demand (read+write) miss ticks (Tick)
system.cpu.icache.demandMissLatency::total    176167498                       # number of demand (read+write) miss ticks (Tick)
system.cpu.icache.overallMissLatency::cpu.inst    176167498                       # number of overall miss ticks (Tick)
system.cpu.icache.overallMissLatency::total    176167498                       # number of overall miss ticks (Tick)
system.cpu.icache.demandAccesses::cpu.inst     10292571                       # number of demand (read+write) accesses (Count)
system.cpu.icache.demandAccesses::total      10292571                       # number of demand (read+write) accesses (Count)
system.cpu.icache.overallAccesses::cpu.inst     10292571                       # number of overall (read+write) accesses (Count)
system.cpu.icache.overallAccesses::total     10292571                       # number of overall (read+write) accesses (Count)
system.cpu.icache.demandMissRate::cpu.inst     0.000253                       # miss rate for demand accesses (Ratio)
system.cpu.icache.demandMissRate::total      0.000253                       # miss rate for demand accesses (Ratio)
system.cpu.icache.overallMissRate::cpu.inst     0.000253                       # miss rate for overall accesses (Ratio)
system.cpu.icache.overallMissRate::total     0.000253                       # miss rate for overall accesses (Ratio)
system.cpu.icache.demandAvgMissLatency::cpu.inst 67626.678695                       # average overall miss latency in ticks ((Tick/Count))
system.cpu.icache.demandAvgMissLatency::total 67626.678695                       # average overall miss latency in ticks ((Tick/Count))
system.cpu.icache.overallAvgMissLatency::cpu.inst 67626.678695                       # average overall miss latency ((Tick/Count))
system.cpu.icache.overallAvgMissLatency::total 67626.678695                       # average overall miss latency ((Tick/Count))
system.cpu.icache.blockedCycles::no_mshrs          767                       # number of cycles access was blocked (Cycle)
system.cpu.icache.blockedCycles::no_targets            0                       # number of cycles access was blocked (Cycle)
system.cpu.icache.blockedCauses::no_mshrs           15                       # number of times access was blocked (Count)
system.cpu.icache.blockedCauses::no_targets            0                       # number of times access was blocked (Count)
system.cpu.icache.avgBlocked::no_mshrs      51.133333                       # average number of cycles each access was blocked ((Cycle/Count))
system.cpu.icache.avgBlocked::no_targets          nan                       # average number of cycles each access was blocked ((Cycle/Count))
system.cpu.icache.writebacks::writebacks         1772                       # number of writebacks (Count)
system.cpu.icache.writebacks::total              1772                       # number of writebacks (Count)
system.cpu.icache.demandMshrHits::cpu.inst          576                       # number of demand (read+write) MSHR hits (Count)
system.cpu.icache.demandMshrHits::total           576                       # number of demand (read+write) MSHR hits (Count)
system.cpu.icache.overallMshrHits::cpu.inst          576                       # number of overall MSHR hits (Count)
system.cpu.icache.overallMshrHits::total          576                       # number of overall MSHR hits (Count)
system.cpu.icache.demandMshrMisses::cpu.inst         2029                       # number of demand (read+write) MSHR misses (Count)
system.cpu.icache.demandMshrMisses::total         2029                       # number of demand (read+write) MSHR misses (Count)
system.cpu.icache.overallMshrMisses::cpu.inst         2029                       # number of overall MSHR misses (Count)
system.cpu.icache.overallMshrMisses::total         2029                       # number of overall MSHR misses (Count)
system.cpu.icache.demandMshrMissLatency::cpu.inst    138859999                       # number of demand (read+write) MSHR miss ticks (Tick)
system.cpu.icache.demandMshrMissLatency::total    138859999                       # number of demand (read+write) MSHR miss ticks (Tick)
system.cpu.icache.overallMshrMissLatency::cpu.inst    138859999                       # number of overall MSHR miss ticks (Tick)
system.cpu.icache.overallMshrMissLatency::total    138859999                       # number of overall MSHR miss ticks (Tick)
system.cpu.icache.demandMshrMissRate::cpu.inst     0.000197                       # mshr miss ratio for demand accesses (Ratio)
system.cpu.icache.demandMshrMissRate::total     0.000197                       # mshr miss ratio for demand accesses (Ratio)
system.cpu.icache.overallMshrMissRate::cpu.inst     0.000197                       # mshr miss ratio for overall accesses (Ratio)
system.cpu.icache.overallMshrMissRate::total     0.000197                       # mshr miss ratio for overall accesses (Ratio)
system.cpu.icache.demandAvgMshrMissLatency::cpu.inst 68437.653524                       # average overall mshr miss latency ((Tick/Count))
system.cpu.icache.demandAvgMshrMissLatency::total 68437.653524                       # average overall mshr miss latency ((Tick/Count))
system.cpu.icache.overallAvgMshrMissLatency::cpu.inst 68437.653524                       # average overall mshr miss latency ((Tick/Count))
system.cpu.icache.overallAvgMshrMissLatency::total 68437.653524                       # average overall mshr miss latency ((Tick/Count))
system.cpu.icache.replacements                   1772                       # number of replacements (Count)
system.cpu.icache.ReadReq.hits::cpu.inst     10289966                       # number of ReadReq hits (Count)
system.cpu.icache.ReadReq.hits::total        10289966                       # number of ReadReq hits (Count)
system.cpu.icache.ReadReq.misses::cpu.inst         2605                       # number of ReadReq misses (Count)
system.cpu.icache.ReadReq.misses::total          2605                       # number of ReadReq misses (Count)
system.cpu.icache.ReadReq.missLatency::cpu.inst    176167498                       # number of ReadReq miss ticks (Tick)
system.cpu.icache.ReadReq.missLatency::total    176167498                       # number of ReadReq miss ticks (Tick)
system.cpu.icache.ReadReq.accesses::cpu.inst     10292571                       # number of ReadReq accesses(hits+misses) (Count)
system.cpu.icache.ReadReq.accesses::total     10292571                       # number of ReadReq accesses(hits+misses) (Count)
system.cpu.icache.ReadReq.missRate::cpu.inst     0.000253                       # miss rate for ReadReq accesses (Ratio)
system.cpu.icache.ReadReq.missRate::total     0.000253                       # miss rate for ReadReq accesses (Ratio)
system.cpu.icache.ReadReq.avgMissLatency::cpu.inst 67626.678695                       # average ReadReq miss latency ((Tick/Count))
system.cpu.icache.ReadReq.avgMissLatency::total 67626.678695                       # average ReadReq miss latency ((Tick/Count))
system.cpu.icache.ReadReq.mshrHits::cpu.inst          576                       # number of ReadReq MSHR hits (Count)
system.cpu.icache.ReadReq.mshrHits::total          576                       # number of ReadReq MSHR hits (Count)
system.cpu.icache.ReadReq.mshrMisses::cpu.inst         2029                       # number of ReadReq MSHR misses (Count)
system.cpu.icache.ReadReq.mshrMisses::total         2029                       # number of ReadReq MSHR misses (Count)
system.cpu.icache.ReadReq.mshrMissLatency::cpu.inst    138859999                       # number of ReadReq MSHR miss ticks (Tick)
system.cpu.icache.ReadReq.mshrMissLatency::total    138859999                       # number of ReadReq MSHR miss ticks (Tick)
system.cpu.icache.ReadReq.mshrMissRate::cpu.inst     0.000197                       # mshr miss rate for ReadReq accesses (Ratio)
system.cpu.icache.ReadReq.mshrMissRate::total     0.000197                       # mshr miss rate for ReadReq accesses (Ratio)
system.cpu.icache.ReadReq.avgMshrMissLatency::cpu.inst 68437.653524                       # average ReadReq mshr miss latency ((Tick/Count))
system.cpu.icache.ReadReq.avgMshrMissLatency::total 68437.653524                       # average ReadReq mshr miss latency ((Tick/Count))
system.cpu.icache.power_state.pwrStateResidencyTicks::UNDEFINED  92839193000                       # Cumulative time (in ticks) in various power states (Tick)
system.cpu.icache.tags.tagsInUse           255.958422                       # Average ticks per tags in use ((Tick/Count))
system.cpu.icache.tags.totalRefs             10291994                       # Total number of references to valid blocks. (Count)
system.cpu.icache.tags.sampledRefs               2028                       # Sample count of references to valid blocks. (Count)
system.cpu.icache.tags.avgRefs            5074.947732                       # Average number of references to valid blocks. ((Count/Count))
system.cpu.icache.tags.warmupTick               87500                       # The tick when the warmup percentage was hit. (Tick)
system.cpu.icache.tags.occupancies::cpu.inst   255.958422                       # Average occupied blocks per tick, per requestor ((Count/Tick))
system.cpu.icache.tags.avgOccs::cpu.inst     0.999838                       # Average percentage of cache occupancy ((Ratio/Tick))
system.cpu.icache.tags.avgOccs::total        0.999838                       # Average percentage of cache occupancy ((Ratio/Tick))
system.cpu.icache.tags.occupanciesTaskId::1024          256                       # Occupied blocks per task id (Count)
system.cpu.icache.tags.ageTaskId_1024::0           74                       # Occupied blocks per task id, per block age (Count)
system.cpu.icache.tags.ageTaskId_1024::1           99                       # Occupied blocks per task id, per block age (Count)
system.cpu.icache.tags.ageTaskId_1024::4           83                       # Occupied blocks per task id, per block age (Count)
system.cpu.icache.tags.ratioOccsTaskId::1024            1                       # Ratio of occupied blocks and all blocks, per task id (Ratio)
system.cpu.icache.tags.tagAccesses           41172312                       # Number of tag accesses (Count)
system.cpu.icache.tags.dataAccesses          41172312                       # Number of data accesses (Count)
system.cpu.icache.tags.power_state.pwrStateResidencyTicks::UNDEFINED  92839193000                       # Cumulative time (in ticks) in various power states (Tick)
system.cpu.iew.idleCycles                           0                       # Number of cycles IEW is idle (Cycle)
system.cpu.iew.squashCycles                     45853                       # Number of cycles IEW is squashing (Cycle)
system.cpu.iew.blockCycles                   20174291                       # Number of cycles IEW is blocking (Cycle)
system.cpu.iew.unblockCycles                   438563                       # Number of cycles IEW is unblocking (Cycle)
system.cpu.iew.dispatchedInsts               67582954                       # Number of instructions dispatched to IQ (Count)
system.cpu.iew.dispSquashedInsts                22706                       # Number of squashed instructions skipped by dispatch (Count)
system.cpu.iew.dispLoadInsts                  6858335                       # Number of dispatched load instructions (Count)
system.cpu.iew.dispStoreInsts                 3408552                       # Number of dispatched store instructions (Count)
system.cpu.iew.dispNonSpecInsts                   404                       # Number of dispatched non-speculative instructions (Count)
system.cpu.iew.iqFullEvents                    211867                       # Number of times the IQ has become full, causing a stall (Count)
system.cpu.iew.lsqFullEvents                    25692                       # Number of times the LSQ has become full, causing a stall (Count)
system.cpu.iew.memOrderViolationEvents            128                       # Number of memory order violations (Count)
system.cpu.iew.predictedTakenIncorrect           8436                       # Number of branches that were predicted taken incorrectly (Count)
system.cpu.iew.predictedNotTakenIncorrect        38987                       # Number of branches that were predicted not taken incorrectly (Count)
system.cpu.iew.branchMispredicts                47423                       # Number of branch mispredicts detected at execute (Count)
system.cpu.iew.instsToCommit                 67072703                       # Cumulative count of insts sent to commit (Count)
system.cpu.iew.writebackCount                67058332                       # Cumulative count of insts written-back (Count)
system.cpu.iew.producerInst                  32468581                       # Number of instructions producing a value (Count)
system.cpu.iew.consumerInst                  46936587                       # Number of instructions consuming a value (Count)
system.cpu.iew.wbRate                        0.361153                       # Insts written-back per cycle ((Count/Cycle))
system.cpu.iew.wbFanout                      0.691754                       # Average fanout of values written-back ((Count/Count))
system.cpu.lsq0.forwLoads                       24443                       # Number of loads that had data forwarded from stores (Count)
system.cpu.lsq0.squashedLoads                  168343                       # Number of loads squashed (Count)
system.cpu.lsq0.ignoredResponses                   38                       # Number of memory responses ignored because the instruction is squashed (Count)
system.cpu.lsq0.memOrderViolation                 128                       # Number of memory ordering violations (Count)
system.cpu.lsq0.squashedStores                  66197                       # Number of stores squashed (Count)
system.cpu.lsq0.rescheduledLoads                 9259                       # Number of loads that were rescheduled (Count)
system.cpu.lsq0.blockedByCache                3917321                       # Number of times an access to memory failed due to the cache being blocked (Count)
system.cpu.lsq0.loadToUse::samples            6689992                       # Distribution of cycle latency between the first time a load is issued and its completion (Unspecified)
system.cpu.lsq0.loadToUse::mean            436.054220                       # Distribution of cycle latency between the first time a load is issued and its completion (Unspecified)
system.cpu.lsq0.loadToUse::stdev           218.784204                       # Distribution of cycle latency between the first time a load is issued and its completion (Unspecified)
system.cpu.lsq0.loadToUse::0-9                 367824      5.50%      5.50% # Distribution of cycle latency between the first time a load is issued and its completion (Unspecified)
system.cpu.lsq0.loadToUse::10-19                 9259      0.14%      5.64% # Distribution of cycle latency between the first time a load is issued and its completion (Unspecified)
system.cpu.lsq0.loadToUse::20-29                64537      0.96%      6.60% # Distribution of cycle latency between the first time a load is issued and its completion (Unspecified)
system.cpu.lsq0.loadToUse::30-39                 7244      0.11%      6.71% # Distribution of cycle latency between the first time a load is issued and its completion (Unspecified)
system.cpu.lsq0.loadToUse::40-49                 4879      0.07%      6.78% # Distribution of cycle latency between the first time a load is issued and its completion (Unspecified)
[...]
system.mem_ctrls.dram.perBankWrBursts::10       204954                       # Per bank write bursts (Count)
system.mem_ctrls.dram.perBankWrBursts::11       188510                       # Per bank write bursts (Count)
system.mem_ctrls.dram.perBankWrBursts::12       197104                       # Per bank write bursts (Count)
system.mem_ctrls.dram.perBankWrBursts::13       196368                       # Per bank write bursts (Count)
system.mem_ctrls.dram.perBankWrBursts::14       189551                       # Per bank write bursts (Count)
system.mem_ctrls.dram.perBankWrBursts::15       204922                       # Per bank write bursts (Count)
system.mem_ctrls.dram.totQLat            103330843250                       # Total ticks spent queuing (Tick)
system.mem_ctrls.dram.totBusLat           17700040000                       # Total ticks spent in databus transfers (Tick)
system.mem_ctrls.dram.totMemAccLat       169705993250                       # Total ticks spent from burst creation until serviced by the DRAM (Tick)
system.mem_ctrls.dram.avgQLat                29189.44                       # Average queueing delay per DRAM burst ((Tick/Count))
system.mem_ctrls.dram.avgBusLat               5000.00                       # Average bus latency per DRAM burst ((Tick/Count))
system.mem_ctrls.dram.avgMemAccLat           47939.44                       # Average memory access latency per DRAM burst ((Tick/Count))
system.mem_ctrls.dram.readRowHits             3215130                       # Number of row buffer hits during reads (Count)
system.mem_ctrls.dram.writeRowHits            2805991                       # Number of row buffer hits during writes (Count)
system.mem_ctrls.dram.readRowHitRate            90.82                       # Row buffer hit rate for reads (Ratio)
system.mem_ctrls.dram.writeRowHitRate           89.76                       # Row buffer hit rate for writes (Ratio)
system.mem_ctrls.dram.bytesPerActivate::samples       644948                       # Bytes accessed per row activation (Byte)
system.mem_ctrls.dram.bytesPerActivate::mean   661.491940                       # Bytes accessed per row activation (Byte)
system.mem_ctrls.dram.bytesPerActivate::gmean   521.698144                       # Bytes accessed per row activation (Byte)
system.mem_ctrls.dram.bytesPerActivate::stdev   345.653325                       # Bytes accessed per row activation (Byte)
system.mem_ctrls.dram.bytesPerActivate::0-127        35966      5.58%      5.58% # Bytes accessed per row activation (Byte)
system.mem_ctrls.dram.bytesPerActivate::128-255        69411     10.76%     16.34% # Bytes accessed per row activation (Byte)
system.mem_ctrls.dram.bytesPerActivate::256-383        65480     10.15%     26.49% # Bytes accessed per row activation (Byte)
system.mem_ctrls.dram.bytesPerActivate::384-511        54558      8.46%     34.95% # Bytes accessed per row activation (Byte)
system.mem_ctrls.dram.bytesPerActivate::512-639        46731      7.25%     42.20% # Bytes accessed per row activation (Byte)
system.mem_ctrls.dram.bytesPerActivate::640-767        47411      7.35%     49.55% # Bytes accessed per row activation (Byte)
system.mem_ctrls.dram.bytesPerActivate::768-895        46533      7.22%     56.76% # Bytes accessed per row activation (Byte)
system.mem_ctrls.dram.bytesPerActivate::896-1023        78886     12.23%     68.99% # Bytes accessed per row activation (Byte)
system.mem_ctrls.dram.bytesPerActivate::1024-1151       199972     31.01%    100.00% # Bytes accessed per row activation (Byte)
system.mem_ctrls.dram.bytesPerActivate::total       644948                       # Bytes accessed per row activation (Byte)
system.mem_ctrls.dram.bytesRead             226560512                       # Total bytes read (Byte)
system.mem_ctrls.dram.bytesWritten          200068800                       # Total bytes written (Byte)
system.mem_ctrls.dram.avgRdBW             2440.354172                       # Average DRAM read bandwidth in MiBytes/s ((Byte/Second))
system.mem_ctrls.dram.avgWrBW             2155.003652                       # Average DRAM write bandwidth in MiBytes/s ((Byte/Second))
system.mem_ctrls.dram.peakBW                 12800.00                       # Theoretical peak bandwidth in MiByte/s ((Byte/Second))
system.mem_ctrls.dram.busUtil                   35.90                       # Data bus utilization in percentage (Ratio)
system.mem_ctrls.dram.busUtilRead               19.07                       # Data bus utilization in percentage for reads (Ratio)
system.mem_ctrls.dram.busUtilWrite              16.84                       # Data bus utilization in percentage for writes (Ratio)
system.mem_ctrls.dram.pageHitRate               90.32                       # Row buffer hit rate, read and write combined (Ratio)
system.mem_ctrls.dram.power_state.pwrStateResidencyTicks::UNDEFINED  92839193000                       # Cumulative time (in ticks) in various power states (Tick)
system.mem_ctrls.dram.rank0.actEnergy      2271091200                       # Energy for activate commands per rank (pJ) (Joule)
system.mem_ctrls.dram.rank0.preEnergy      1207083240                       # Energy for precharge commands per rank (pJ) (Joule)
system.mem_ctrls.dram.rank0.readEnergy    12570941040                       # Energy for read commands per rank (pJ) (Joule)
system.mem_ctrls.dram.rank0.writeEnergy    8055222120                       # Energy for write commands per rank (pJ) (Joule)
system.mem_ctrls.dram.rank0.refreshEnergy 7328352720.000001                       # Energy for refresh commands per rank (pJ) (Joule)
system.mem_ctrls.dram.rank0.actBackEnergy  39745389210                       # Energy for active background per rank (pJ) (Joule)
system.mem_ctrls.dram.rank0.preBackEnergy   2180448960                       # Energy for precharge background per rank (pJ) (Joule)
system.mem_ctrls.dram.rank0.actPowerDownEnergy            0                       # Energy for active power-down per rank (pJ) (Joule)
system.mem_ctrls.dram.rank0.prePowerDownEnergy            0                       # Energy for precharge power-down per rank (pJ) (Joule)
system.mem_ctrls.dram.rank0.selfRefreshEnergy            0                       # Energy for self refresh per rank (pJ) (Joule)
system.mem_ctrls.dram.rank0.totalEnergy   73358528490                       # Total energy per rank (pJ) (Joule)
system.mem_ctrls.dram.rank0.averagePower   790.167666                       # Core power per rank (mW) (Watt)
system.mem_ctrls.dram.rank0.totalIdleTime            0                       # Total Idle time Per DRAM Rank (Tick)
system.mem_ctrls.dram.rank0.pwrStateTime::IDLE   5274002000                       # Time in different power states (Tick)
system.mem_ctrls.dram.rank0.pwrStateTime::REF   3099980000                       # Time in different power states (Tick)
system.mem_ctrls.dram.rank0.pwrStateTime::SREF            0                       # Time in different power states (Tick)
system.mem_ctrls.dram.rank0.pwrStateTime::PRE_PDN            0                       # Time in different power states (Tick)
system.mem_ctrls.dram.rank0.pwrStateTime::ACT  84465211000                       # Time in different power states (Tick)
system.mem_ctrls.dram.rank0.pwrStateTime::ACT_PDN            0                       # Time in different power states (Tick)
system.mem_ctrls.dram.rank1.actEnergy      2333937480                       # Energy for activate commands per rank (pJ) (Joule)
system.mem_ctrls.dram.rank1.preEnergy      1240486830                       # Energy for precharge commands per rank (pJ) (Joule)
system.mem_ctrls.dram.rank1.readEnergy    12704716080                       # Energy for read commands per rank (pJ) (Joule)
system.mem_ctrls.dram.rank1.writeEnergy    8262858060                       # Energy for write commands per rank (pJ) (Joule)
system.mem_ctrls.dram.rank1.refreshEnergy 7328352720.000001                       # Energy for refresh commands per rank (pJ) (Joule)
system.mem_ctrls.dram.rank1.actBackEnergy  40371833460                       # Energy for active background per rank (pJ) (Joule)
system.mem_ctrls.dram.rank1.preBackEnergy   1652916960                       # Energy for precharge background per rank (pJ) (Joule)
system.mem_ctrls.dram.rank1.actPowerDownEnergy            0                       # Energy for active power-down per rank (pJ) (Joule)
system.mem_ctrls.dram.rank1.prePowerDownEnergy            0                       # Energy for precharge power-down per rank (pJ) (Joule)
system.mem_ctrls.dram.rank1.selfRefreshEnergy            0                       # Energy for self refresh per rank (pJ) (Joule)
system.mem_ctrls.dram.rank1.totalEnergy   73895101590                       # Total energy per rank (pJ) (Joule)
system.mem_ctrls.dram.rank1.averagePower   795.947263                       # Core power per rank (mW) (Watt)
system.mem_ctrls.dram.rank1.totalIdleTime            0                       # Total Idle time Per DRAM Rank (Tick)
system.mem_ctrls.dram.rank1.pwrStateTime::IDLE   3907880750                       # Time in different power states (Tick)
system.mem_ctrls.dram.rank1.pwrStateTime::REF   3099980000                       # Time in different power states (Tick)
system.mem_ctrls.dram.rank1.pwrStateTime::SREF            0                       # Time in different power states (Tick)
system.mem_ctrls.dram.rank1.pwrStateTime::PRE_PDN            0                       # Time in different power states (Tick)
system.mem_ctrls.dram.rank1.pwrStateTime::ACT  85831332250                       # Time in different power states (Tick)
system.mem_ctrls.dram.rank1.pwrStateTime::ACT_PDN            0                       # Time in different power states (Tick)
system.mem_ctrls.power_state.pwrStateResidencyTicks::UNDEFINED  92839193000                       # Cumulative time (in ticks) in various power states (Tick)
system.membus.transDist::ReadResp             3538545                       # Transaction distribution (Count)
system.membus.transDist::WritebackDirty       3126099                       # Transaction distribution (Count)
system.membus.transDist::CleanEvict            409890                       # Transaction distribution (Count)
system.membus.transDist::ReadExReq               1482                       # Transaction distribution (Count)
system.membus.transDist::ReadExResp              1482                       # Transaction distribution (Count)
system.membus.transDist::ReadSharedReq        3538545                       # Transaction distribution (Count)
system.membus.transDist::InvalidateReq            143                       # Transaction distribution (Count)
system.membus.pktCount_system.l2.mem_side_port::system.mem_ctrls.port     10616186                       # Packet count per connected requestor and responder (Count)
system.membus.pktCount::total                10616186                       # Packet count per connected requestor and responder (Count)
system.membus.pktSize_system.l2.mem_side_port::system.mem_ctrls.port    426632064                       # Cumulative packet size per connected requestor and responder (Byte)
system.membus.pktSize::total                426632064                       # Cumulative packet size per connected requestor and responder (Byte)
system.membus.snoops                                0                       # Total snoops (Count)
system.membus.snoopTraffic                          0                       # Total snoop traffic (Byte)
system.membus.snoopFanout::samples            3540170                       # Request fanout histogram (Count)
system.membus.snoopFanout::mean                     0                       # Request fanout histogram (Count)
system.membus.snoopFanout::stdev                    0                       # Request fanout histogram (Count)
system.membus.snoopFanout::underflows               0      0.00%      0.00% # Request fanout histogram (Count)
system.membus.snoopFanout::0                  3540170    100.00%    100.00% # Request fanout histogram (Count)
system.membus.snoopFanout::1                        0      0.00%    100.00% # Request fanout histogram (Count)
system.membus.snoopFanout::overflows                0      0.00%    100.00% # Request fanout histogram (Count)
system.membus.snoopFanout::min_value                0                       # Request fanout histogram (Count)
system.membus.snoopFanout::max_value                0                       # Request fanout histogram (Count)
system.membus.snoopFanout::total              3540170                       # Request fanout histogram (Count)
system.membus.power_state.pwrStateResidencyTicks::UNDEFINED  92839193000                       # Cumulative time (in ticks) in various power states (Tick)
system.membus.reqLayer0.occupancy         20755832500                       # Layer occupancy (ticks) (Tick)
system.membus.reqLayer0.utilization               0.2                       # Layer utilization (Ratio)
system.membus.respLayer1.occupancy        18531646500                       # Layer occupancy (ticks) (Tick)
system.membus.respLayer1.utilization              0.2                       # Layer utilization (Ratio)
system.membus.snoop_filter.totRequests        7076159                       # Total number of requests made to the snoop filter. (Count)
system.membus.snoop_filter.hitSingleRequests      3535989                       # Number of requests hitting in the snoop filter with a single holder of the requested data. (Count)
system.membus.snoop_filter.hitMultiRequests            0                       # Number of requests hitting in the snoop filter with multiple (>1) holders of the requested data. (Count)
system.membus.snoop_filter.totSnoops                0                       # Total number of snoops made to the snoop filter. (Count)
system.membus.snoop_filter.hitSingleSnoops            0                       # Number of snoops hitting in the snoop filter with a single holder of the requested data. (Count)
system.membus.snoop_filter.hitMultiSnoops            0                       # Number of snoops hitting in the snoop filter with multiple (>1) holders of the requested data. (Count)
system.tol2bus.transDist::ReadResp            3934660                       # Transaction distribution (Count)
system.tol2bus.transDist::WritebackDirty      6254583                       # Transaction distribution (Count)
system.tol2bus.transDist::WritebackClean         1772                       # Transaction distribution (Count)
system.tol2bus.transDist::CleanEvict          1215896                       # Transaction distribution (Count)
system.tol2bus.transDist::ReadExReq              2120                       # Transaction distribution (Count)
system.tol2bus.transDist::ReadExResp             2120                       # Transaction distribution (Count)
system.tol2bus.transDist::ReadCleanReq           2029                       # Transaction distribution (Count)
system.tol2bus.transDist::ReadSharedReq       3932632                       # Transaction distribution (Count)
system.tol2bus.transDist::InvalidateReq           144                       # Transaction distribution (Count)
system.tol2bus.transDist::InvalidateResp          144                       # Transaction distribution (Count)
system.tol2bus.pktCount_system.cpu.icache.mem_side_port::system.l2.cpu_side_port         5829                       # Packet count per connected requestor and responder (Count)
system.tol2bus.pktCount_system.cpu.dcache.mem_side_port::system.l2.cpu_side_port     11803664                       # Packet count per connected requestor and responder (Count)
system.tol2bus.pktCount::total               11809493                       # Packet count per connected requestor and responder (Count)
system.tol2bus.pktSize_system.cpu.icache.mem_side_port::system.l2.cpu_side_port       243200                       # Cumulative packet size per connected requestor and responder (Byte)
system.tol2bus.pktSize_system.cpu.dcache.mem_side_port::system.l2.cpu_side_port    452047040                       # Cumulative packet size per connected requestor and responder (Byte)
system.tol2bus.pktSize::total               452290240                       # Cumulative packet size per connected requestor and responder (Byte)
system.tol2bus.snoops                         3536607                       # Total snoops (Count)
system.tol2bus.snoopTraffic                 200070400                       # Total snoop traffic (Byte)
system.tol2bus.snoopFanout::samples           7473532                       # Request fanout histogram (Count)
system.tol2bus.snoopFanout::mean             0.000104                       # Request fanout histogram (Count)
system.tol2bus.snoopFanout::stdev            0.010209                       # Request fanout histogram (Count)
system.tol2bus.snoopFanout::underflows              0      0.00%      0.00% # Request fanout histogram (Count)
system.tol2bus.snoopFanout::0                 7472753     99.99%     99.99% # Request fanout histogram (Count)
system.tol2bus.snoopFanout::1                     779      0.01%    100.00% # Request fanout histogram (Count)
system.tol2bus.snoopFanout::2                       0      0.00%    100.00% # Request fanout histogram (Count)
system.tol2bus.snoopFanout::overflows               0      0.00%    100.00% # Request fanout histogram (Count)
system.tol2bus.snoopFanout::min_value               0                       # Request fanout histogram (Count)
system.tol2bus.snoopFanout::max_value               1                       # Request fanout histogram (Count)
system.tol2bus.snoopFanout::total             7473532                       # Request fanout histogram (Count)
system.tol2bus.power_state.pwrStateResidencyTicks::UNDEFINED  92839193000                       # Cumulative time (in ticks) in various power states (Tick)
system.tol2bus.reqLayer0.occupancy         7066539500                       # Layer occupancy (ticks) (Tick)
system.tol2bus.reqLayer0.utilization              0.1                       # Layer utilization (Ratio)
system.tol2bus.respLayer0.occupancy           3043497                       # Layer occupancy (ticks) (Tick)
system.tol2bus.respLayer0.utilization             0.0                       # Layer utilization (Ratio)
system.tol2bus.respLayer1.occupancy        5902200000                       # Layer occupancy (ticks) (Tick)
system.tol2bus.respLayer1.utilization             0.1                       # Layer utilization (Ratio)
system.tol2bus.snoop_filter.totRequests       7872569                       # Total number of requests made to the snoop filter. (Count)
system.tol2bus.snoop_filter.hitSingleRequests      3935644                       # Number of requests hitting in the snoop filter with a single holder of the requested data. (Count)
system.tol2bus.snoop_filter.hitMultiRequests            1                       # Number of requests hitting in the snoop filter with multiple (>1) holders of the requested data. (Count)
system.tol2bus.snoop_filter.totSnoops             778                       # Total number of snoops made to the snoop filter. (Count)
system.tol2bus.snoop_filter.hitSingleSnoops          778                       # Number of snoops hitting in the snoop filter with a single holder of the requested data. (Count)
system.tol2bus.snoop_filter.hitMultiSnoops            0                       # Number of snoops hitting in the snoop filter with multiple (>1) holders of the requested data. (Count)
system.voltage_domain.voltage                       1                       # Voltage in Volts (Volt)
system.workload.inst.arm                            0                       # number of arm instructions executed (Count)
system.workload.inst.quiesce                        0                       # number of quiesce instructions executed (Count)

---------- End Simulation Statistics   ----------
