
---------- Begin Simulation Statistics ----------
simSeconds                                   0.014001                       # Number of seconds simulated (Second)
simTicks                                  14000775000                       # Number of ticks simulated (Tick)
finalTick                                 14990950000                       # Number of ticks from beginning of simulation (restored from checkpoints and never reset) (Tick)
simFreq                                  1000000000000                       # The number of ticks per simulated second ((Tick/Second))
hostSeconds                                    178.60                       # Real time elapsed on the host (Second)
hostTickRate                                 78393550                       # The number of ticks simulated per host second (ticks/s) ((Tick/Second))
hostMemory                                     681144                       # Number of bytes of host memory used (Byte)
simInsts                                     58295626                       # Number of instructions simulated (Count)
simOps                                       64182990                       # Number of ops (including micro ops) simulated (Count)
hostInstRate                                   326410                       # Simulator instruction rate (inst/s) ((Count/Second))
hostOpRate                                     359375                       # Simulator op (including micro ops) rate (op/s) ((Count/Second))
system.clk_domain.clock                          1000                       # Clock period in ticks (Tick)
system.cpu.numCycles                         28001550                       # Number of cpu cycles simulated (Cycle)
system.cpu.numWorkItemsStarted                      0                       # Number of work items this cpu started (Count)
system.cpu.numWorkItemsCompleted                    0                       # Number of work items this cpu completed (Count)
system.cpu.instsAdded                        62343235                       # Number of instructions added to the IQ (excludes non-spec) (Count)
system.cpu.nonSpecInstsAdded                      240                       # Number of non-speculative instructions added to the IQ (Count)
system.cpu.instsIssued                       62309587                       # Number of instructions issued (Count)
system.cpu.squashedInstsIssued                    253                       # Number of squashed instructions issued (Count)
system.cpu.squashedInstsExamined                86996                       # Number of squashed instructions iterated over during squash; mainly for profiling (Count)
system.cpu.squashedOperandsExamined             97794                       # Number of squashed operands that are examined and possibly removed from graph (Count)
system.cpu.squashedNonSpecRemoved                  95                       # Number of squashed non-spec instructions that were removed (Count)
system.cpu.numIssuedDist::samples            27976224                       # Number of insts issued each cycle (Count)
system.cpu.numIssuedDist::mean               2.227234                       # Number of insts issued each cycle (Count)
system.cpu.numIssuedDist::stdev              2.821785                       # Number of insts issued each cycle (Count)
system.cpu.numIssuedDist::underflows                0      0.00%      0.00% # Number of insts issued each cycle (Count)
system.cpu.numIssuedDist::0                  15203438     54.34%     54.34% # Number of insts issued each cycle (Count)
system.cpu.numIssuedDist::1                   1120763      4.01%     58.35% # Number of insts issued each cycle (Count)
system.cpu.numIssuedDist::2                    915840      3.27%     61.62% # Number of insts issued each cycle (Count)
system.cpu.numIssuedDist::3                   1349800      4.82%     66.45% # Number of insts issued each cycle (Count)
system.cpu.numIssuedDist::4                   1937096      6.92%     73.37% # Number of insts issued each cycle (Count)
system.cpu.numIssuedDist::5                   2234153      7.99%     81.36% # Number of insts issued each cycle (Count)
system.cpu.numIssuedDist::6                   1988362      7.11%     88.47% # Number of insts issued each cycle (Count)
system.cpu.numIssuedDist::7                   1355753      4.85%     93.31% # Number of insts issued each cycle (Count)
system.cpu.numIssuedDist::8                   1871019      6.69%    100.00% # Number of insts issued each cycle (Count)
system.cpu.numIssuedDist::overflows                 0      0.00%    100.00% # Number of insts issued each cycle (Count)
system.cpu.numIssuedDist::min_value                 0                       # Number of insts issued each cycle (Count)
system.cpu.numIssuedDist::max_value                 8                       # Number of insts issued each cycle (Count)
system.cpu.numIssuedDist::total              27976224                       # Number of insts issued each cycle (Count)
system.cpu.statFuBusy::No_OpClass                   0      0.00%      0.00% # attempts to use FU when none available (Count)
system.cpu.statFuBusy::IntAlu                    3797      0.10%      0.10% # attempts to use FU when none available (Count)
system.cpu.statFuBusy::IntMult                  87661      2.23%      2.32% # attempts to use FU when none available (Count)
system.cpu.statFuBusy::IntDiv                       0      0.00%      2.32% # attempts to use FU when none available (Count)
system.cpu.statFuBusy::FloatAdd                     0      0.00%      2.32% # attempts to use FU when none available (Count)
system.cpu.statFuBusy::FloatCmp                     0      0.00%      2.32% # attempts to use FU when none available (Count)
system.cpu.statFuBusy::FloatCvt                     0      0.00%      2.32% # attempts to use FU when none available (Count)
system.cpu.statFuBusy::FloatMult                    0      0.00%      2.32% # attempts to use FU when none available (Count)
system.cpu.statFuBusy::FloatMultAcc                 0      0.00%      2.32% # attempts to use FU when none available (Count)
system.cpu.statFuBusy::FloatDiv                     0      0.00%      2.32% # attempts to use FU when none available (Count)
system.cpu.statFuBusy::FloatMisc                    0      0.00%      2.32% # attempts to use FU when none available (Count)
system.cpu.statFuBusy::FloatSqrt                    0      0.00%      2.32% # attempts to use FU when none available (Count)
system.cpu.statFuBusy::SimdAdd                1464664     37.21%     39.53% # attempts to use FU when none available (Count)
system.cpu.statFuBusy::SimdAddAcc                   0      0.00%     39.53% # attempts to use FU when none available (Count)
system.cpu.statFuBusy::SimdAlu                1818946     46.21%     85.74% # attempts to use FU when none available (Count)
system.cpu.statFuBusy::SimdCmp                      0      0.00%     85.74% # attempts to use FU when none available (Count)
system.cpu.statFuBusy::SimdCvt                      0      0.00%     85.74% # attempts to use FU when none available (Count)
system.cpu.statFuBusy::SimdMisc                374980      9.53%     95.27% # attempts to use FU when none available (Count)
system.cpu.statFuBusy::SimdMult                     0      0.00%     95.27% # attempts to use FU when none available (Count)
system.cpu.statFuBusy::SimdMultAcc                  0      0.00%     95.27% # attempts to use FU when none available (Count)
system.cpu.statFuBusy::SimdShift                    0      0.00%     95.27% # attempts to use FU when none available (Count)
system.cpu.statFuBusy::SimdShiftAcc                 0      0.00%     95.27% # attempts to use FU when none available (Count)
system.cpu.statFuBusy::SimdDiv                      0      0.00%     95.27% # attempts to use FU when none available (Count)
system.cpu.statFuBusy::SimdSqrt                     0      0.00%     95.27% # attempts to use FU when none available (Count)
system.cpu.statFuBusy::SimdFloatAdd                 0      0.00%     95.27% # attempts to use FU when none available (Count)
system.cpu.statFuBusy::SimdFloatAlu                 0      0.00%     95.27% # attempts to use FU when none available (Count)
system.cpu.statFuBusy::SimdFloatCmp                 0      0.00%     95.27% # attempts to use FU when none available (Count)
system.cpu.statFuBusy::SimdFloatCvt                 0      0.00%     95.27% # attempts to use FU when none available (Count)
system.cpu.statFuBusy::SimdFloatDiv                 0      0.00%     95.27% # attempts to use FU when none available (Count)
system.cpu.statFuBusy::SimdFloatMisc                0      0.00%     95.27% # attempts to use FU when none available (Count)
system.cpu.statFuBusy::SimdFloatMult                0      0.00%     95.27% # attempts to use FU when none available (Count)
system.cpu.statFuBusy::SimdFloatMultAcc             0      0.00%     95.27% # attempts to use FU when none available (Count)
system.cpu.statFuBusy::SimdFloatSqrt                0      0.00%     95.27% # attempts to use FU when none available (Count)
system.cpu.statFuBusy::SimdReduceAdd                0      0.00%     95.27% # attempts to use FU when none available (Count)
system.cpu.statFuBusy::SimdReduceAlu                0      0.00%     95.27% # attempts to use FU when none available (Count)
system.cpu.statFuBusy::SimdReduceCmp                0      0.00%     95.27% # attempts to use FU when none available (Count)
system.cpu.statFuBusy::SimdFloatReduceAdd            0      0.00%     95.27% # attempts to use FU when none available (Count)
system.cpu.statFuBusy::SimdFloatReduceCmp            0      0.00%     95.27% # attempts to use FU when none available (Count)
system.cpu.statFuBusy::SimdAes                      0      0.00%     95.27% # attempts to use FU when none available (Count)
system.cpu.statFuBusy::SimdAesMix                   0      0.00%     95.27% # attempts to use FU when none available (Count)
system.cpu.statFuBusy::SimdSha1Hash                 0      0.00%     95.27% # attempts to use FU when none available (Count)
system.cpu.statFuBusy::SimdSha1Hash2                0      0.00%     95.27% # attempts to use FU when none available (Count)
system.cpu.statFuBusy::SimdSha256Hash               0      0.00%     95.27% # attempts to use FU when none available (Count)
system.cpu.statFuBusy::SimdSha256Hash2              0      0.00%     95.27% # attempts to use FU when none available (Count)
system.cpu.statFuBusy::SimdShaSigma2                0      0.00%     95.27% # attempts to use FU when none available (Count)
system.cpu.statFuBusy::SimdShaSigma3                0      0.00%     95.27% # attempts to use FU when none available (Count)
system.cpu.statFuBusy::SimdPredAlu                  0      0.00%     95.27% # attempts to use FU when none available (Count)
system.cpu.statFuBusy::MemRead                 161248      4.10%     99.36% # attempts to use FU when none available (Count)
system.cpu.statFuBusy::MemWrite                 25134      0.64%    100.00% # attempts to use FU when none available (Count)
system.cpu.statFuBusy::FloatMemRead                 0      0.00%    100.00% # attempts to use FU when none available (Count)
system.cpu.statFuBusy::FloatMemWrite                0      0.00%    100.00% # attempts to use FU when none available (Count)
system.cpu.statFuBusy::IprAccess                    0      0.00%    100.00% # attempts to use FU when none available (Count)
system.cpu.statFuBusy::InstPrefetch                 0      0.00%    100.00% # attempts to use FU when none available (Count)
system.cpu.statIssuedInstType_0::No_OpClass      2775320      4.45%      4.45% # Number of instructions issued per FU type, per thread (Count)
system.cpu.statIssuedInstType_0::IntAlu      20292104     32.57%     37.02% # Number of instructions issued per FU type, per thread (Count)
system.cpu.statIssuedInstType_0::IntMult       624411      1.00%     38.02% # Number of instructions issued per FU type, per thread (Count)
system.cpu.statIssuedInstType_0::IntDiv            15      0.00%     38.02% # Number of instructions issued per FU type, per thread (Count)
system.cpu.statIssuedInstType_0::FloatAdd            0      0.00%     38.02% # Number of instructions issued per FU type, per thread (Count)
system.cpu.statIssuedInstType_0::FloatCmp            0      0.00%     38.02% # Number of instructions issued per FU type, per thread (Count)
system.cpu.statIssuedInstType_0::FloatCvt            0      0.00%     38.02% # Number of instructions issued per FU type, per thread (Count)
system.cpu.statIssuedInstType_0::FloatMult            0      0.00%     38.02% # Number of instructions issued per FU type, per thread (Count)
system.cpu.statIssuedInstType_0::FloatMultAcc            0      0.00%     38.02% # Number of instructions issued per FU type, per thread (Count)
system.cpu.statIssuedInstType_0::FloatDiv            0      0.00%     38.02% # Number of instructions issued per FU type, per thread (Count)
system.cpu.statIssuedInstType_0::FloatMisc            0      0.00%     38.02% # Number of instructions issued per FU type, per thread (Count)
system.cpu.statIssuedInstType_0::FloatSqrt            0      0.00%     38.02% # Number of instructions issued per FU type, per thread (Count)
system.cpu.statIssuedInstType_0::SimdAdd      7357168     11.81%     49.83% # Number of instructions issued per FU type, per thread (Count)
system.cpu.statIssuedInstType_0::SimdAddAcc            0      0.00%     49.83% # Number of instructions issued per FU type, per thread (Count)
system.cpu.statIssuedInstType_0::SimdAlu     10641508     17.08%     66.91% # Number of instructions issued per FU type, per thread (Count)
system.cpu.statIssuedInstType_0::SimdCmp            0      0.00%     66.91% # Number of instructions issued per FU type, per thread (Count)
system.cpu.statIssuedInstType_0::SimdCvt            0      0.00%     66.91% # Number of instructions issued per FU type, per thread (Count)
system.cpu.statIssuedInstType_0::SimdMisc      5449914      8.75%     75.66% # Number of instructions issued per FU type, per thread (Count)
system.cpu.statIssuedInstType_0::SimdMult            0      0.00%     75.66% # Number of instructions issued per FU type, per thread (Count)
system.cpu.statIssuedInstType_0::SimdMultAcc            0      0.00%     75.66% # Number of instructions issued per FU type, per thread (Count)
system.cpu.statIssuedInstType_0::SimdShift            0      0.00%     75.66% # Number of instructions issued per FU type, per thread (Count)
system.cpu.statIssuedInstType_0::SimdShiftAcc            0      0.00%     75.66% # Number of instructions issued per FU type, per thread (Count)
system.cpu.statIssuedInstType_0::SimdDiv            0      0.00%     75.66% # Number of instructions issued per FU type, per thread (Count)
system.cpu.statIssuedInstType_0::SimdSqrt            0      0.00%     75.66% # Number of instructions issued per FU type, per thread (Count)
system.cpu.statIssuedInstType_0::SimdFloatAdd            0      0.00%     75.66% # Number of instructions issued per FU type, per thread (Count)
system.cpu.statIssuedInstType_0::SimdFloatAlu            0      0.00%     75.66% # Number of instructions issued per FU type, per thread (Count)
system.cpu.statIssuedInstType_0::SimdFloatCmp            0      0.00%     75.66% # Number of instructions issued per FU type, per thread (Count)
system.cpu.statIssuedInstType_0::SimdFloatCvt            0      0.00%     75.66% # Number of instructions issued per FU type, per thread (Count)
system.cpu.statIssuedInstType_0::SimdFloatDiv            0      0.00%     75.66% # Number of instructions issued per FU type, per thread (Count)
system.cpu.statIssuedInstType_0::SimdFloatMisc            0      0.00%     75.66% # Number of instructions issued per FU type, per thread (Count)
system.cpu.statIssuedInstType_0::SimdFloatMult            0      0.00%     75.66% # Number of instructions issued per FU type, per thread (Count)
system.cpu.statIssuedInstType_0::SimdFloatMultAcc            0      0.00%     75.66% # Number of instructions issued per FU type, per thread (Count)
system.cpu.statIssuedInstType_0::SimdFloatSqrt            0      0.00%     75.66% # Number of instructions issued per FU type, per thread (Count)
system.cpu.statIssuedInstType_0::SimdReduceAdd            0      0.00%     75.66% # Number of instructions issued per FU type, per thread (Count)
system.cpu.statIssuedInstType_0::SimdReduceAlu            0      0.00%     75.66% # Number of instructions issued per FU type, per thread (Count)
system.cpu.statIssuedInstType_0::SimdReduceCmp            0      0.00%     75.66% # Number of instructions issued per FU type, per thread (Count)
system.cpu.statIssuedInstType_0::SimdFloatReduceAdd            0      0.00%     75.66% # Number of instructions issued per FU type, per thread (Count)
system.cpu.statIssuedInstType_0::SimdFloatReduceCmp            0      0.00%     75.66% # Number of instructions issued per FU type, per thread (Count)
system.cpu.statIssuedInstType_0::SimdAes            0      0.00%     75.66% # Number of instructions issued per FU type, per thread (Count)
system.cpu.statIssuedInstType_0::SimdAesMix            0      0.00%     75.66% # Number of instructions issued per FU type, per thread (Count)
system.cpu.statIssuedInstType_0::SimdSha1Hash            0      0.00%     75.66% # Number of instructions issued per FU type, per thread (Count)
system.cpu.statIssuedInstType_0::SimdSha1Hash2            0      0.00%     75.66% # Number of instructions issued per FU type, per thread (Count)
system.cpu.statIssuedInstType_0::SimdSha256Hash            0      0.00%     75.66% # Number of instructions issued per FU type, per thread (Count)
system.cpu.statIssuedInstType_0::SimdSha256Hash2            0      0.00%     75.66% # Number of instructions issued per FU type, per thread (Count)
system.cpu.statIssuedInstType_0::SimdShaSigma2            0      0.00%     75.66% # Number of instructions issued per FU type, per thread (Count)
system.cpu.statIssuedInstType_0::SimdShaSigma3            0      0.00%     75.66% # Number of instructions issued per FU type, per thread (Count)
system.cpu.statIssuedInstType_0::SimdPredAlu            0      0.00%     75.66% # Number of instructions issued per FU type, per thread (Count)
system.cpu.statIssuedInstType_0::MemRead     10071459     16.16%     91.82% # Number of instructions issued per FU type, per thread (Count)
system.cpu.statIssuedInstType_0::MemWrite      5097688      8.18%    100.00% # Number of instructions issued per FU type, per thread (Count)
system.cpu.statIssuedInstType_0::FloatMemRead            0      0.00%    100.00% # Number of instructions issued per FU type, per thread (Count)
system.cpu.statIssuedInstType_0::FloatMemWrite            0      0.00%    100.00% # Number of instructions issued per FU type, per thread (Count)
system.cpu.statIssuedInstType_0::IprAccess            0      0.00%    100.00% # Number of instructions issued per FU type, per thread (Count)
system.cpu.statIssuedInstType_0::InstPrefetch            0      0.00%    100.00% # Number of instructions issued per FU type, per thread (Count)
system.cpu.statIssuedInstType_0::total       62309587                       # Number of instructions issued per FU type, per thread (Count)
system.cpu.issueRate                         2.225219                       # Inst issue rate ((Count/Cycle))
system.cpu.fuBusy                             3936430                       # FU busy when requested (Count)
system.cpu.fuBusyRate                        0.063175                       # FU busy rate (busy events/executed inst) ((Count/Count))
system.cpu.intInstQueueReads                 88121526                       # Number of integer instruction queue reads (Count)
system.cpu.intInstQueueWrites                30073628                       # Number of integer instruction queue writes (Count)
system.cpu.intInstQueueWakeupAccesses        29973811                       # Number of integer instruction queue wakeup accesses (Count)
system.cpu.fpInstQueueReads                         0                       # Number of floating instruction queue reads (Count)
system.cpu.fpInstQueueWrites                        0                       # Number of floating instruction queue writes (Count)
system.cpu.fpInstQueueWakeupAccesses                0                       # Number of floating instruction queue wakeup accesses (Count)
system.cpu.vecInstQueueReads                 68410555                       # Number of vector instruction queue reads (Count)
system.cpu.vecInstQueueWrites                32357616                       # Number of vector instruction queue writes (Count)
system.cpu.vecInstQueueWakeupAccesses        32318437                       # Number of vector instruction queue wakeup accesses (Count)
system.cpu.intAluAccesses                    30158365                       # Number of integer alu accesses (Count)
system.cpu.fpAluAccesses                            0                       # Number of floating point alu accesses (Count)
system.cpu.vecAluAccesses                    33312332                       # Number of vector alu accesses (Count)
system.cpu.numInsts                          62304356                       # Number of executed instructions (Count)
system.cpu.numLoadInsts                      10067840                       # Number of load instructions executed (Count)
system.cpu.numSquashedInsts                      5231                       # Number of squashed instructions skipped in execute (Count)
system.cpu.numSwp                                   0                       # Number of swp insts executed (Count)
system.cpu.numNop                                  84                       # Number of nop insts executed (Count)
system.cpu.numRefs                           15165229                       # Number of memory reference insts executed (Count)
system.cpu.numBranches                          76391                       # Number of branches executed (Count)
system.cpu.numStoreInsts                      5097389                       # Number of stores executed (Count)
system.cpu.numRate                           2.225032                       # Inst execution rate ((Count/Cycle))
system.cpu.timesIdled                             226                       # Number of times that the entire CPU went into an idle state and unscheduled itself (Count)
system.cpu.idleCycles                           25326                       # Total number of cycles that the CPU has spent unscheduled due to idling (Cycle)
system.cpu.committedInsts                    56638202                       # Number of Instructions Simulated (Count)
system.cpu.committedOps                      62256495                       # Number of Ops (including micro ops) Simulated (Count)
system.cpu.cpi                               0.494393                       # CPI: Cycles Per Instruction ((Cycle/Count))
system.cpu.totalCpi                          0.494393                       # CPI: Total CPI of All Threads ((Cycle/Count))
system.cpu.ipc                               2.022681                       # IPC: Instructions Per Cycle ((Count/Cycle))
system.cpu.totalIpc                          2.022681                       # IPC: Total IPC of All Threads ((Count/Cycle))
system.cpu.intRegfileReads                   57839032                       # Number of integer regfile reads (Count)
system.cpu.intRegfileWrites                  31790229                       # Number of integer regfile writes (Count)
system.cpu.vecRegfileReads                   67746010                       # number of vector regfile reads (Count)
system.cpu.ccRegfileReads                      217851                       # number of cc regfile reads (Count)
system.cpu.ccRegfileWrites                     217935                       # number of cc regfile writes (Count)
system.cpu.miscRegfileReads                  59164507                       # number of misc regfile reads (Count)
system.cpu.miscRegfileWrites                      144                       # number of misc regfile writes (Count)
system.cpu.MemDepUnit__0.insertedLoads       10071889                       # Number of loads inserted to the mem dependence unit. (Count)
system.cpu.MemDepUnit__0.insertedStores       5101148                       # Number of stores inserted to the mem dependence unit. (Count)
system.cpu.MemDepUnit__0.conflictingLoads      1366452                       # Number of conflicting loads. (Count)
system.cpu.MemDepUnit__0.conflictingStores        37807                       # Number of conflicting stores. (Count)
system.cpu.MemDepUnit__1.insertedLoads              0                       # Number of loads inserted to the mem dependence unit. (Count)
system.cpu.MemDepUnit__1.insertedStores             0                       # Number of stores inserted to the mem dependence unit. (Count)
system.cpu.MemDepUnit__1.conflictingLoads            0                       # Number of conflicting loads. (Count)
system.cpu.MemDepUnit__1.conflictingStores            0                       # Number of conflicting stores. (Count)
system.cpu.MemDepUnit__2.insertedLoads              0                       # Number of loads inserted to the mem dependence unit. (Count)
system.cpu.MemDepUnit__2.insertedStores             0                       # Number of stores inserted to the mem dependence unit. (Count)
system.cpu.MemDepUnit__2.conflictingLoads            0                       # Number of conflicting loads. (Count)
system.cpu.MemDepUnit__2.conflictingStores            0                       # Number of conflicting stores. (Count)
system.cpu.MemDepUnit__3.insertedLoads              0                       # Number of loads inserted to the mem dependence unit. (Count)
system.cpu.MemDepUnit__3.insertedStores             0                       # Number of stores inserted to the mem dependence unit. (Count)
system.cpu.MemDepUnit__3.conflictingLoads            0                       # Number of conflicting loads. (Count)
system.cpu.MemDepUnit__3.conflictingStores            0                       # Number of conflicting stores. (Count)
system.cpu.branchPred.lookups                   78528                       # Number of BP lookups (Count)
system.cpu.branchPred.condPredicted             75252                       # Number of conditional branches predicted (Count)
system.cpu.branchPred.condIncorrect              2150                       # Number of conditional branches incorrect (Count)
system.cpu.branchPred.BTBLookups                73601                       # Number of BTB lookups (Count)
system.cpu.branchPred.BTBUpdates                  204                       # Number of BTB updates (Count)
system.cpu.branchPred.BTBHits                   73350                       # Number of BTB hits (Count)
system.cpu.branchPred.BTBHitRatio            0.996590                       # BTB Hit Ratio (Ratio)
system.cpu.branchPred.RASUsed                     368                       # Number of times the RAS was used to get a target. (Count)
system.cpu.branchPred.RASIncorrect                  8                       # Number of incorrect RAS predictions. (Count)
system.cpu.branchPred.indirectLookups             604                       # Number of indirect predictor lookups. (Count)
system.cpu.branchPred.indirectHits                 17                       # Number of indirect target hits. (Count)
system.cpu.branchPred.indirectMisses              587                       # Number of indirect misses. (Count)
system.cpu.branchPred.indirectMispredicted           80                       # Number of mispredicted indirect branches. (Count)
system.cpu.commit.commitSquashedInsts           78680                       # The number of squashed insts skipped by commit (Count)
system.cpu.commit.commitNonSpecStalls             145                       # The number of times commit has been forced to stall to communicate backwards (Count)
system.cpu.commit.branchMispredicts              2436                       # The number of times a branch was mispredicted (Count)
system.cpu.commit.numCommittedDist::samples     27964629                       # Number of insts commited each cycle (Count)
system.cpu.commit.numCommittedDist::mean     2.226260                       # Number of insts commited each cycle (Count)
system.cpu.commit.numCommittedDist::stdev     3.248282                       # Number of insts commited each cycle (Count)
system.cpu.commit.numCommittedDist::underflows            0      0.00%      0.00% # Number of insts commited each cycle (Count)
system.cpu.commit.numCommittedDist::0        17059492     61.00%     61.00% # Number of insts commited each cycle (Count)
system.cpu.commit.numCommittedDist::1         1150580      4.11%     65.12% # Number of insts commited each cycle (Count)
system.cpu.commit.numCommittedDist::2         1099272      3.93%     69.05% # Number of insts commited each cycle (Count)
system.cpu.commit.numCommittedDist::3          888561      3.18%     72.23% # Number of insts commited each cycle (Count)
system.cpu.commit.numCommittedDist::4          545038      1.95%     74.18% # Number of insts commited each cycle (Count)
system.cpu.commit.numCommittedDist::5          556298      1.99%     76.16% # Number of insts commited each cycle (Count)
system.cpu.commit.numCommittedDist::6          775589      2.77%     78.94% # Number of insts commited each cycle (Count)
system.cpu.commit.numCommittedDist::7          491851      1.76%     80.70% # Number of insts commited each cycle (Count)
system.cpu.commit.numCommittedDist::8         5397948     19.30%    100.00% # Number of insts commited each cycle (Count)
system.cpu.commit.numCommittedDist::overflows            0      0.00%    100.00% # Number of insts commited each cycle (Count)
system.cpu.commit.numCommittedDist::min_value            0                       # Number of insts commited each cycle (Count)
system.cpu.commit.numCommittedDist::max_value            8                       # Number of insts commited each cycle (Count)
system.cpu.commit.numCommittedDist::total     27964629                       # Number of insts commited each cycle (Count)
system.cpu.commit.instsCommitted             56638231                       # Number of instructions committed (Count)
system.cpu.commit.opsCommitted               62256524                       # Number of ops (including micro ops) committed (Count)
system.cpu.commit.memRefs                    15145273                       # Number of memory references committed (Count)
system.cpu.commit.loads                      10050401                       # Number of loads committed (Count)
system.cpu.commit.amos                             72                       # Number of atomic instructions committed (Count)
system.cpu.commit.membars                          72                       # Number of memory barriers committed (Count)
system.cpu.commit.branches                      75495                       # Number of branches committed (Count)
system.cpu.commit.vectorInstructions         32307022                       # Number of committed Vector instructions. (Count)
system.cpu.commit.floating                          0                       # Number of committed floating point instructions. (Count)
system.cpu.commit.integer                    41416364                       # Number of committed integer instructions. (Count)
system.cpu.commit.functionCalls                   186                       # Number of function calls committed. (Count)
system.cpu.commit.committedInstType_0::No_OpClass      2774152      4.46%      4.46% # Class of committed instruction (Count)
system.cpu.commit.committedInstType_0::IntAlu     20273917     32.57%     37.02% # Class of committed instruction (Count)
system.cpu.commit.committedInstType_0::IntMult       623643      1.00%     38.02% # Class of committed instruction (Count)
system.cpu.commit.committedInstType_0::IntDiv            9      0.00%     38.02% # Class of committed instruction (Count)
system.cpu.commit.committedInstType_0::FloatAdd            0      0.00%     38.02% # Class of committed instruction (Count)
system.cpu.commit.committedInstType_0::FloatCmp            0      0.00%     38.02% # Class of committed instruction (Count)
system.cpu.commit.committedInstType_0::FloatCvt            0      0.00%     38.02% # Class of committed instruction (Count)
system.cpu.commit.committedInstType_0::FloatMult            0      0.00%     38.02% # Class of committed instruction (Count)
system.cpu.commit.committedInstType_0::FloatMultAcc            0      0.00%     38.02% # Class of committed instruction (Count)
system.cpu.commit.committedInstType_0::FloatDiv            0      0.00%     38.02% # Class of committed instruction (Count)
system.cpu.commit.committedInstType_0::FloatMisc            0      0.00%     38.02% # Class of committed instruction (Count)
system.cpu.commit.committedInstType_0::FloatSqrt            0      0.00%     38.02% # Class of committed instruction (Count)
system.cpu.commit.committedInstType_0::SimdAdd      7354368     11.81%     49.84% # Class of committed instruction (Count)
system.cpu.commit.committedInstType_0::SimdAddAcc            0      0.00%     49.84% # Class of committed instruction (Count)
system.cpu.commit.committedInstType_0::SimdAlu     10637456     17.09%     66.92% # Class of committed instruction (Count)
system.cpu.commit.committedInstType_0::SimdCmp            0      0.00%     66.92% # Class of committed instruction (Count)
system.cpu.commit.committedInstType_0::SimdCvt            0      0.00%     66.92% # Class of committed instruction (Count)
system.cpu.commit.committedInstType_0::SimdMisc      5447706      8.75%     75.67% # Class of committed instruction (Count)
system.cpu.commit.committedInstType_0::SimdMult            0      0.00%     75.67% # Class of committed instruction (Count)
system.cpu.commit.committedInstType_0::SimdMultAcc            0      0.00%     75.67% # Class of committed instruction (Count)
system.cpu.commit.committedInstType_0::SimdShift            0      0.00%     75.67% # Class of committed instruction (Count)
system.cpu.commit.committedInstType_0::SimdShiftAcc            0      0.00%     75.67% # Class of committed instruction (Count)
system.cpu.commit.committedInstType_0::SimdDiv            0      0.00%     75.67% # Class of committed instruction (Count)
system.cpu.commit.committedInstType_0::SimdSqrt            0      0.00%     75.67% # Class of committed instruction (Count)
system.cpu.commit.committedInstType_0::SimdFloatAdd            0      0.00%     75.67% # Class of committed instruction (Count)
system.cpu.commit.committedInstType_0::SimdFloatAlu            0      0.00%     75.67% # Class of committed instruction (Count)
system.cpu.commit.committedInstType_0::SimdFloatCmp            0      0.00%     75.67% # Class of committed instruction (Count)
system.cpu.commit.committedInstType_0::SimdFloatCvt            0      0.00%     75.67% # Class of committed instruction (Count)
system.cpu.commit.committedInstType_0::SimdFloatDiv            0      0.00%     75.67% # Class of committed instruction (Count)
system.cpu.commit.committedInstType_0::SimdFloatMisc            0      0.00%     75.67% # Class of committed instruction (Count)
system.cpu.commit.committedInstType_0::SimdFloatMult            0      0.00%     75.67% # Class of committed instruction (Count)
system.cpu.commit.committedInstType_0::SimdFloatMultAcc            0      0.00%     75.67% # Class of committed instruction (Count)
system.cpu.commit.committedInstType_0::SimdFloatSqrt            0      0.00%     75.67% # Class of committed instruction (Count)
system.cpu.commit.committedInstType_0::SimdReduceAdd            0      0.00%     75.67% # Class of committed instruction (Count)
system.cpu.commit.committedInstType_0::SimdReduceAlu            0      0.00%     75.67% # Class of committed instruction (Count)
system.cpu.commit.committedInstType_0::SimdReduceCmp            0      0.00%     75.67% # Class of committed instruction (Count)
system.cpu.commit.committedInstType_0::SimdFloatReduceAdd            0      0.00%     75.67% # Class of committed instruction (Count)
system.cpu.commit.committedInstType_0::SimdFloatReduceCmp            0      0.00%     75.67% # Class of committed instruction (Count)
system.cpu.commit.committedInstType_0::SimdAes            0      0.00%     75.67% # Class of committed instruction (Count)
system.cpu.commit.committedInstType_0::SimdAesMix            0      0.00%     75.67% # Class of committed instruction (Count)
system.cpu.commit.committedInstType_0::SimdSha1Hash            0      0.00%     75.67% # Class of committed instruction (Count)
system.cpu.commit.committedInstType_0::SimdSha1Hash2            0      0.00%     75.67% # Class of committed instruction (Count)
system.cpu.commit.committedInstType_0::SimdSha256Hash            0      0.00%     75.67% # Class of committed instruction (Count)
system.cpu.commit.committedInstType_0::SimdSha256Hash2            0      0.00%     75.67% # Class of committed instruction (Count)
system.cpu.commit.committedInstType_0::SimdShaSigma2            0      0.00%     75.67% # Class of committed instruction (Count)
system.cpu.commit.committedInstType_0::SimdShaSigma3            0      0.00%     75.67% # Class of committed instruction (Count)
system.cpu.commit.committedInstType_0::SimdPredAlu            0      0.00%     75.67% # Class of committed instruction (Count)
system.cpu.commit.committedInstType_0::MemRead     10050401     16.14%     91.82% # Class of committed instruction (Count)
system.cpu.commit.committedInstType_0::MemWrite      5094872      8.18%    100.00% # Class of committed instruction (Count)
system.cpu.commit.committedInstType_0::FloatMemRead            0      0.00%    100.00% # Class of committed instruction (Count)
system.cpu.commit.committedInstType_0::FloatMemWrite            0      0.00%    100.00% # Class of committed instruction (Count)
system.cpu.commit.committedInstType_0::IprAccess            0      0.00%    100.00% # Class of committed instruction (Count)
system.cpu.commit.committedInstType_0::InstPrefetch            0      0.00%    100.00% # Class of committed instruction (Count)
system.cpu.commit.committedInstType_0::total     62256524                       # Class of committed instruction (Count)
system.cpu.commit.commitEligibleSamples       5397948                       # number cycles where commit BW limit reached (Cycle)
system.cpu.dcache.demandHits::cpu.data       13900756                       # number of demand (read+write) hits (Count)
system.cpu.dcache.demandHits::total          13900756                       # number of demand (read+write) hits (Count)
system.cpu.dcache.overallHits::cpu.data      13900756                       # number of overall hits (Count)
system.cpu.dcache.overallHits::total         13900756                       # number of overall hits (Count)
system.cpu.dcache.demandMisses::cpu.data       186879                       # number of demand (read+write) misses (Count)
system.cpu.dcache.demandMisses::total          186879                       # number of demand (read+write) misses (Count)
system.cpu.dcache.overallMisses::cpu.data       186879                       # number of overall misses (Count)
system.cpu.dcache.overallMisses::total         186879                       # number of overall misses (Count)
system.cpu.dcache.demandMissLatency::cpu.data  15130687999                       # number of demand (read+write) miss ticks (Tick)
system.cpu.dcache.demandMissLatency::total  15130687999                       # number of demand (read+write) miss ticks (Tick)
system.cpu.dcache.overallMissLatency::cpu.data  15130687999                       # number of overall miss ticks (Tick)
system.cpu.dcache.overallMissLatency::total  15130687999                       # number of overall miss ticks (Tick)
system.cpu.dcache.demandAccesses::cpu.data     14087635                       # number of demand (read+write) accesses (Count)
system.cpu.dcache.demandAccesses::total      14087635                       # number of demand (read+write) accesses (Count)
system.cpu.dcache.overallAccesses::cpu.data     14087635                       # number of overall (read+write) accesses (Count)
system.cpu.dcache.overallAccesses::total     14087635                       # number of overall (read+write) accesses (Count)
system.cpu.dcache.demandMissRate::cpu.data     0.013265                       # miss rate for demand accesses (Ratio)
system.cpu.dcache.demandMissRate::total      0.013265                       # miss rate for demand accesses (Ratio)
system.cpu.dcache.overallMissRate::cpu.data     0.013265                       # miss rate for overall accesses (Ratio)
system.cpu.dcache.overallMissRate::total     0.013265                       # miss rate for overall accesses (Ratio)
system.cpu.dcache.demandAvgMissLatency::cpu.data 80965.159269                       # average overall miss latency in ticks ((Tick/Count))
system.cpu.dcache.demandAvgMissLatency::total 80965.159269                       # average overall miss latency in ticks ((Tick/Count))
system.cpu.dcache.overallAvgMissLatency::cpu.data 80965.159269                       # average overall miss latency ((Tick/Count))
system.cpu.dcache.overallAvgMissLatency::total 80965.159269                       # average overall miss latency ((Tick/Count))
system.cpu.dcache.blockedCycles::no_mshrs         9832                       # number of cycles access was blocked (Cycle)
system.cpu.dcache.blockedCycles::no_targets           70                       # number of cycles access was blocked (Cycle)
system.cpu.dcache.blockedCauses::no_mshrs          125                       # number of times access was blocked (Count)
system.cpu.dcache.blockedCauses::no_targets            1                       # number of times access was blocked (Count)
system.cpu.dcache.avgBlocked::no_mshrs      78.656000                       # average number of cycles each access was blocked ((Cycle/Count))
system.cpu.dcache.avgBlocked::no_targets           70                       # average number of cycles each access was blocked ((Cycle/Count))
system.cpu.dcache.writebacks::writebacks        53063                       # number of writebacks (Count)
system.cpu.dcache.writebacks::total             53063                       # number of writebacks (Count)
system.cpu.dcache.demandMshrHits::cpu.data        33122                       # number of demand (read+write) MSHR hits (Count)
system.cpu.dcache.demandMshrHits::total         33122                       # number of demand (read+write) MSHR hits (Count)
system.cpu.dcache.overallMshrHits::cpu.data        33122                       # number of overall MSHR hits (Count)
system.cpu.dcache.overallMshrHits::total        33122                       # number of overall MSHR hits (Count)
system.cpu.dcache.demandMshrMisses::cpu.data       153757                       # number of demand (read+write) MSHR misses (Count)
system.cpu.dcache.demandMshrMisses::total       153757                       # number of demand (read+write) MSHR misses (Count)
system.cpu.dcache.overallMshrMisses::cpu.data       153757                       # number of overall MSHR misses (Count)
system.cpu.dcache.overallMshrMisses::total       153757                       # number of overall MSHR misses (Count)
system.cpu.dcache.demandMshrMissLatency::cpu.data  12349187000                       # number of demand (read+write) MSHR miss ticks (Tick)
system.cpu.dcache.demandMshrMissLatency::total  12349187000                       # number of demand (read+write) MSHR miss ticks (Tick)
system.cpu.dcache.overallMshrMissLatency::cpu.data  12349187000                       # number of overall MSHR miss ticks (Tick)
system.cpu.dcache.overallMshrMissLatency::total  12349187000                       # number of overall MSHR miss ticks (Tick)
system.cpu.dcache.demandMshrMissRate::cpu.data     0.010914                       # mshr miss ratio for demand accesses (Ratio)
system.cpu.dcache.demandMshrMissRate::total     0.010914                       # mshr miss ratio for demand accesses (Ratio)
system.cpu.dcache.overallMshrMissRate::cpu.data     0.010914                       # mshr miss ratio for overall accesses (Ratio)
system.cpu.dcache.overallMshrMissRate::total     0.010914                       # mshr miss ratio for overall accesses (Ratio)
system.cpu.dcache.demandAvgMshrMissLatency::cpu.data 80316.258772                       # average overall mshr miss latency ((Tick/Count))
system.cpu.dcache.demandAvgMshrMissLatency::total 80316.258772                       # average overall mshr miss latency ((Tick/Count))
system.cpu.dcache.overallAvgMshrMissLatency::cpu.data 80316.258772                       # average overall mshr miss latency ((Tick/Count))
system.cpu.dcache.overallAvgMshrMissLatency::total 80316.258772                       # average overall mshr miss latency ((Tick/Count))
system.cpu.dcache.replacements                 153759                       # number of replacements (Count)
system.cpu.dcache.ReadReq.hits::cpu.data      8805997                       # number of ReadReq hits (Count)
system.cpu.dcache.ReadReq.hits::total         8805997                       # number of ReadReq hits (Count)
system.cpu.dcache.ReadReq.misses::cpu.data       186838                       # number of ReadReq misses (Count)
system.cpu.dcache.ReadReq.misses::total        186838                       # number of ReadReq misses (Count)
system.cpu.dcache.ReadReq.missLatency::cpu.data  15127036000                       # number of ReadReq miss ticks (Tick)
system.cpu.dcache.ReadReq.missLatency::total  15127036000                       # number of ReadReq miss ticks (Tick)
system.cpu.dcache.ReadReq.accesses::cpu.data      8992835                       # number of ReadReq accesses(hits+misses) (Count)
system.cpu.dcache.ReadReq.accesses::total      8992835                       # number of ReadReq accesses(hits+misses) (Count)
system.cpu.dcache.ReadReq.missRate::cpu.data     0.020776                       # miss rate for ReadReq accesses (Ratio)
system.cpu.dcache.ReadReq.missRate::total     0.020776                       # miss rate for ReadReq accesses (Ratio)
system.cpu.dcache.ReadReq.avgMissLatency::cpu.data 80963.380040                       # average ReadReq miss latency ((Tick/Count))
system.cpu.dcache.ReadReq.avgMissLatency::total 80963.380040                       # average ReadReq miss latency ((Tick/Count))
system.cpu.dcache.ReadReq.mshrHits::cpu.data        33095                       # number of ReadReq MSHR hits (Count)
system.cpu.dcache.ReadReq.mshrHits::total        33095                       # number of ReadReq MSHR hits (Count)
system.cpu.dcache.ReadReq.mshrMisses::cpu.data       153743                       # number of ReadReq MSHR misses (Count)
system.cpu.dcache.ReadReq.mshrMisses::total       153743                       # number of ReadReq MSHR misses (Count)
system.cpu.dcache.ReadReq.mshrMissLatency::cpu.data  12347829500                       # number of ReadReq MSHR miss ticks (Tick)
system.cpu.dcache.ReadReq.mshrMissLatency::total  12347829500                       # number of ReadReq MSHR miss ticks (Tick)
system.cpu.dcache.ReadReq.mshrMissRate::cpu.data     0.017096                       # mshr miss rate for ReadReq accesses (Ratio)
system.cpu.dcache.ReadReq.mshrMissRate::total     0.017096                       # mshr miss rate for ReadReq accesses (Ratio)
system.cpu.dcache.ReadReq.avgMshrMissLatency::cpu.data 80314.742785                       # average ReadReq mshr miss latency ((Tick/Count))
system.cpu.dcache.ReadReq.avgMshrMissLatency::total 80314.742785                       # average ReadReq mshr miss latency ((Tick/Count))
system.cpu.dcache.SwapReq.hits::cpu.data           70                       # number of SwapReq hits (Count)
system.cpu.dcache.SwapReq.hits::total              70                       # number of SwapReq hits (Count)
system.cpu.dcache.SwapReq.misses::cpu.data            2                       # number of SwapReq misses (Count)
system.cpu.dcache.SwapReq.misses::total             2                       # number of SwapReq misses (Count)
system.cpu.dcache.SwapReq.missLatency::cpu.data       186000                       # number of SwapReq miss ticks (Tick)
system.cpu.dcache.SwapReq.missLatency::total       186000                       # number of SwapReq miss ticks (Tick)
system.cpu.dcache.SwapReq.accesses::cpu.data           72                       # number of SwapReq accesses(hits+misses) (Count)
system.cpu.dcache.SwapReq.accesses::total           72                       # number of SwapReq accesses(hits+misses) (Count)
system.cpu.dcache.SwapReq.missRate::cpu.data     0.027778                       # miss rate for SwapReq accesses (Ratio)
system.cpu.dcache.SwapReq.missRate::total     0.027778                       # miss rate for SwapReq accesses (Ratio)
system.cpu.dcache.SwapReq.avgMissLatency::cpu.data        93000                       # average SwapReq miss latency ((Tick/Count))
system.cpu.dcache.SwapReq.avgMissLatency::total        93000                       # average SwapReq miss latency ((Tick/Count))
system.cpu.dcache.SwapReq.mshrMisses::cpu.data            2                       # number of SwapReq MSHR misses (Count)
system.cpu.dcache.SwapReq.mshrMisses::total            2                       # number of SwapReq MSHR misses (Count)
system.cpu.dcache.SwapReq.mshrMissLatency::cpu.data       184000                       # number of SwapReq MSHR miss ticks (Tick)
system.cpu.dcache.SwapReq.mshrMissLatency::total       184000                       # number of SwapReq MSHR miss ticks (Tick)
system.cpu.dcache.SwapReq.mshrMissRate::cpu.data     0.027778                       # mshr miss rate for SwapReq accesses (Ratio)
system.cpu.dcache.SwapReq.mshrMissRate::total     0.027778                       # mshr miss rate for SwapReq accesses (Ratio)
system.cpu.dcache.SwapReq.avgMshrMissLatency::cpu.data        92000                       # average SwapReq mshr miss latency ((Tick/Count))
system.cpu.dcache.SwapReq.avgMshrMissLatency::total        92000                       # average SwapReq mshr miss latency ((Tick/Count))
system.cpu.dcache.WriteReq.hits::cpu.data      5094759                       # number of WriteReq hits (Count)
system.cpu.dcache.WriteReq.hits::total        5094759                       # number of WriteReq hits (Count)
system.cpu.dcache.WriteReq.misses::cpu.data           41                       # number of WriteReq misses (Count)
system.cpu.dcache.WriteReq.misses::total           41                       # number of WriteReq misses (Count)
system.cpu.dcache.WriteReq.missLatency::cpu.data      3651999                       # number of WriteReq miss ticks (Tick)
system.cpu.dcache.WriteReq.missLatency::total      3651999                       # number of WriteReq miss ticks (Tick)
system.cpu.dcache.WriteReq.accesses::cpu.data      5094800                       # number of WriteReq accesses(hits+misses) (Count)
system.cpu.dcache.WriteReq.accesses::total      5094800                       # number of WriteReq accesses(hits+misses) (Count)
system.cpu.dcache.WriteReq.missRate::cpu.data     0.000008                       # miss rate for WriteReq accesses (Ratio)
system.cpu.dcache.WriteReq.missRate::total     0.000008                       # miss rate for WriteReq accesses (Ratio)
system.cpu.dcache.WriteReq.avgMissLatency::cpu.data 89073.146341                       # average WriteReq miss latency ((Tick/Count))
system.cpu.dcache.WriteReq.avgMissLatency::total 89073.146341                       # average WriteReq miss latency ((Tick/Count))
system.cpu.dcache.WriteReq.mshrHits::cpu.data           27                       # number of WriteReq MSHR hits (Count)
system.cpu.dcache.WriteReq.mshrHits::total           27                       # number of WriteReq MSHR hits (Count)
system.cpu.dcache.WriteReq.mshrMisses::cpu.data           14                       # number of WriteReq MSHR misses (Count)
system.cpu.dcache.WriteReq.mshrMisses::total           14                       # number of WriteReq MSHR misses (Count)
system.cpu.dcache.WriteReq.mshrMissLatency::cpu.data      1357500                       # number of WriteReq MSHR miss ticks (Tick)
system.cpu.dcache.WriteReq.mshrMissLatency::total      1357500                       # number of WriteReq MSHR miss ticks (Tick)
system.cpu.dcache.WriteReq.mshrMissRate::cpu.data     0.000003                       # mshr miss rate for WriteReq accesses (Ratio)
system.cpu.dcache.WriteReq.mshrMissRate::total     0.000003                       # mshr miss rate for WriteReq accesses (Ratio)
system.cpu.dcache.WriteReq.avgMshrMissLatency::cpu.data 96964.285714                       # average WriteReq mshr miss latency ((Tick/Count))
system.cpu.dcache.WriteReq.avgMshrMissLatency::total 96964.285714                       # average WriteReq mshr miss latency ((Tick/Count))
system.cpu.dcache.power_state.pwrStateResidencyTicks::UNDEFINED  14990950000                       # Cumulative time (in ticks) in various power states (Tick)
system.cpu.dcache.tags.tagsInUse                 1024                       # Average ticks per tags in use ((Tick/Count))
system.cpu.dcache.tags.totalRefs             14108884                       # Total number of references to valid blocks. (Count)
system.cpu.dcache.tags.sampledRefs             154783                       # Sample count of references to valid blocks. (Count)
system.cpu.dcache.tags.avgRefs              91.152672                       # Average number of references to valid blocks. ((Count/Count))
system.cpu.dcache.tags.warmupTick                   0                       # The tick when the warmup percentage was hit. (Tick)
system.cpu.dcache.tags.occupancies::cpu.data         1024                       # Average occupied blocks per tick, per requestor ((Count/Tick))
system.cpu.dcache.tags.avgOccs::cpu.data            1                       # Average percentage of cache occupancy ((Ratio/Tick))
system.cpu.dcache.tags.avgOccs::total               1                       # Average percentage of cache occupancy ((Ratio/Tick))
system.cpu.dcache.tags.occupanciesTaskId::1024         1024                       # Occupied blocks per task id (Count)
system.cpu.dcache.tags.ageTaskId_1024::0           96                       # Occupied blocks per task id, per block age (Count)
system.cpu.dcache.tags.ageTaskId_1024::1          751                       # Occupied blocks per task id, per block age (Count)
system.cpu.dcache.tags.ageTaskId_1024::2          165                       # Occupied blocks per task id, per block age (Count)
system.cpu.dcache.tags.ageTaskId_1024::4           12                       # Occupied blocks per task id, per block age (Count)
system.cpu.dcache.tags.ratioOccsTaskId::1024            1                       # Ratio of occupied blocks and all blocks, per task id (Ratio)
system.cpu.dcache.tags.tagAccesses           56504587                       # Number of tag accesses (Count)
system.cpu.dcache.tags.dataAccesses          56504587                       # Number of data accesses (Count)
system.cpu.dcache.tags.power_state.pwrStateResidencyTicks::UNDEFINED  14990950000                       # Cumulative time (in ticks) in various power states (Tick)
system.cpu.decode.idleCycles                  3309633                       # Number of cycles decode is idle (Cycle)
system.cpu.decode.blockedCycles              15819555                       # Number of cycles decode is blocked (Cycle)
system.cpu.decode.runCycles                   8468474                       # Number of cycles decode is running (Cycle)
system.cpu.decode.unblockCycles                375190                       # Number of cycles decode is unblocking (Cycle)
system.cpu.decode.squashCycles                   3372                       # Number of cycles decode is squashing (Cycle)
system.cpu.decode.branchResolved                73231                       # Number of times decode resolved a branch (Count)
system.cpu.decode.branchMispred                    75                       # Number of times decode detected a branch misprediction (Count)
system.cpu.decode.decodedInsts               62385261                       # Number of instructions handled by decode (Count)
system.cpu.decode.squashedInsts                   276                       # Number of squashed instructions handled by decode (Count)
system.cpu.fetch.icacheStallCycles            3643775                       # Number of cycles fetch is stalled on an Icache miss (Cycle)
system.cpu.fetch.insts                       56786738                       # Number of instructions fetch has processed (Count)
system.cpu.fetch.branches                       78528                       # Number of branches that fetch encountered (Count)
system.cpu.fetch.predictedBranches              73735                       # Number of branches that fetch has predicted taken (Count)
system.cpu.fetch.cycles                      24326236                       # Number of cycles fetch has run and was not squashing or blocked (Cycle)
system.cpu.fetch.squashCycles                    6888                       # Number of cycles fetch has spent squashing (Cycle)
system.cpu.fetch.miscStallCycles                  366                       # Number of cycles fetch has spent waiting on interrupts, or bad addresses, or out of MSHRs (Cycle)
system.cpu.fetch.pendingTrapStallCycles          2381                       # Number of stall cycles due to pending traps (Cycle)
system.cpu.fetch.icacheWaitRetryStallCycles           22                       # Number of stall cycles due to full MSHR (Cycle)
system.cpu.fetch.cacheLines                   3635303                       # Number of cache lines fetched (Count)
system.cpu.fetch.icacheSquashes                   418                       # Number of outstanding Icache misses that were squashed (Count)
system.cpu.fetch.nisnDist::samples           27976224                       # Number of instructions fetched each cycle (Total) (Count)
system.cpu.fetch.nisnDist::mean              2.231090                       # Number of instructions fetched each cycle (Total) (Count)
system.cpu.fetch.nisnDist::stdev             3.451161                       # Number of instructions fetched each cycle (Total) (Count)
system.cpu.fetch.nisnDist::underflows               0      0.00%      0.00% # Number of instructions fetched each cycle (Total) (Count)
system.cpu.fetch.nisnDist::0                 18839455     67.34%     67.34% # Number of instructions fetched each cycle (Total) (Count)
system.cpu.fetch.nisnDist::1                    68737      0.25%     67.59% # Number of instructions fetched each cycle (Total) (Count)
system.cpu.fetch.nisnDist::2                  1228716      4.39%     71.98% # Number of instructions fetched each cycle (Total) (Count)
system.cpu.fetch.nisnDist::3                      775      0.00%     71.98% # Number of instructions fetched each cycle (Total) (Count)
system.cpu.fetch.nisnDist::4                   634078      2.27%     74.25% # Number of instructions fetched each cycle (Total) (Count)
system.cpu.fetch.nisnDist::5                    70668      0.25%     74.50% # Number of instructions fetched each cycle (Total) (Count)
system.cpu.fetch.nisnDist::6                    35105      0.13%     74.63% # Number of instructions fetched each cycle (Total) (Count)
system.cpu.fetch.nisnDist::7                      812      0.00%     74.63% # Number of instructions fetched each cycle (Total) (Count)
system.cpu.fetch.nisnDist::8                  7097878     25.37%    100.00% # Number of instructions fetched each cycle (Total) (Count)
system.cpu.fetch.nisnDist::overflows                0      0.00%    100.00% # Number of instructions fetched each cycle (Total) (Count)
system.cpu.fetch.nisnDist::min_value                0                       # Number of instructions fetched each cycle (Total) (Count)
system.cpu.fetch.nisnDist::max_value                8                       # Number of instructions fetched each cycle (Total) (Count)
system.cpu.fetch.nisnDist::total             27976224                       # Number of instructions fetched each cycle (Total) (Count)
system.cpu.fetch.branchRate                  0.002804                       # Number of branch fetches per cycle (Ratio)
system.cpu.fetch.rate                        2.027986                       # Number of inst fetches per cycle ((Count/Cycle))
system.cpu.icache.demandHits::cpu.inst        3634972                       # number of demand (read+write) hits (Count)
system.cpu.icache.demandHits::total           3634972                       # number of demand (read+write) hits (Count)
system.cpu.icache.overallHits::cpu.inst       3634972                       # number of overall hits (Count)
system.cpu.icache.overallHits::total          3634972                       # number of overall hits (Count)
system.cpu.icache.demandMisses::cpu.inst          331                       # number of demand (read+write) misses (Count)
system.cpu.icache.demandMisses::total             331                       # number of demand (read+write) misses (Count)
system.cpu.icache.overallMisses::cpu.inst          331                       # number of overall misses (Count)
system.cpu.icache.overallMisses::total            331                       # number of overall misses (Count)
system.cpu.icache.demandMissLatency::cpu.inst     25055499                       # number of demand (read+write) miss ticks (Tick)
system.cpu.icache.demandMissLatency::total     25055499                       # number of demand (read+write) miss ticks (Tick)
system.cpu.icache.overallMissLatency::cpu.inst     25055499                       # number of overall miss ticks (Tick)
system.cpu.icache.overallMissLatency::total     25055499                       # number of overall miss ticks (Tick)
system.cpu.icache.demandAccesses::cpu.inst      3635303                       # number of demand (read+write) accesses (Count)
system.cpu.icache.demandAccesses::total       3635303                       # number of demand (read+write) accesses (Count)
system.cpu.icache.overallAccesses::cpu.inst      3635303                       # number of overall (read+write) accesses (Count)
system.cpu.icache.overallAccesses::total      3635303                       # number of overall (read+write) accesses (Count)
system.cpu.icache.demandMissRate::cpu.inst     0.000091                       # miss rate for demand accesses (Ratio)
system.cpu.icache.demandMissRate::total      0.000091                       # miss rate for demand accesses (Ratio)
system.cpu.icache.overallMissRate::cpu.inst     0.000091                       # miss rate for overall accesses (Ratio)
system.cpu.icache.overallMissRate::total     0.000091                       # miss rate for overall accesses (Ratio)
system.cpu.icache.demandAvgMissLatency::cpu.inst 75696.371601                       # average overall miss latency in ticks ((Tick/Count))
system.cpu.icache.demandAvgMissLatency::total 75696.371601                       # average overall miss latency in ticks ((Tick/Count))
system.cpu.icache.overallAvgMissLatency::cpu.inst 75696.371601                       # average overall miss latency ((Tick/Count))
system.cpu.icache.overallAvgMissLatency::total 75696.371601                       # average overall miss latency ((Tick/Count))
system.cpu.icache.blockedCycles::no_mshrs          168                       # number of cycles access was blocked (Cycle)
system.cpu.icache.blockedCycles::no_targets            0                       # number of cycles access was blocked (Cycle)
system.cpu.icache.blockedCauses::no_mshrs            2                       # number of times access was blocked (Count)
system.cpu.icache.blockedCauses::no_targets            0                       # number of times access was blocked (Count)
system.cpu.icache.avgBlocked::no_mshrs             84                       # average number of cycles each access was blocked ((Cycle/Count))
system.cpu.icache.avgBlocked::no_targets          nan                       # average number of cycles each access was blocked ((Cycle/Count))
system.cpu.icache.writebacks::writebacks          271                       # number of writebacks (Count)
system.cpu.icache.writebacks::total               271                       # number of writebacks (Count)
system.cpu.icache.demandMshrHits::cpu.inst           60                       # number of demand (read+write) MSHR hits (Count)
system.cpu.icache.demandMshrHits::total            60                       # number of demand (read+write) MSHR hits (Count)
system.cpu.icache.overallMshrHits::cpu.inst           60                       # number of overall MSHR hits (Count)
system.cpu.icache.overallMshrHits::total           60                       # number of overall MSHR hits (Count)
system.cpu.icache.demandMshrMisses::cpu.inst          271                       # number of demand (read+write) MSHR misses (Count)
system.cpu.icache.demandMshrMisses::total          271                       # number of demand (read+write) MSHR misses (Count)
system.cpu.icache.overallMshrMisses::cpu.inst          271                       # number of overall MSHR misses (Count)
system.cpu.icache.overallMshrMisses::total          271                       # number of overall MSHR misses (Count)
system.cpu.icache.demandMshrMissLatency::cpu.inst     20489999                       # number of demand (read+write) MSHR miss ticks (Tick)
system.cpu.icache.demandMshrMissLatency::total     20489999                       # number of demand (read+write) MSHR miss ticks (Tick)
system.cpu.icache.overallMshrMissLatency::cpu.inst     20489999                       # number of overall MSHR miss ticks (Tick)
system.cpu.icache.overallMshrMissLatency::total     20489999                       # number of overall MSHR miss ticks (Tick)
system.cpu.icache.demandMshrMissRate::cpu.inst     0.000075                       # mshr miss ratio for demand accesses (Ratio)
system.cpu.icache.demandMshrMissRate::total     0.000075                       # mshr miss ratio for demand accesses (Ratio)
system.cpu.icache.overallMshrMissRate::cpu.inst     0.000075                       # mshr miss ratio for overall accesses (Ratio)
system.cpu.icache.overallMshrMissRate::total     0.000075                       # mshr miss ratio for overall accesses (Ratio)
system.cpu.icache.demandAvgMshrMissLatency::cpu.inst 75608.852399                       # average overall mshr miss latency ((Tick/Count))
system.cpu.icache.demandAvgMshrMissLatency::total 75608.852399                       # average overall mshr miss latency ((Tick/Count))
system.cpu.icache.overallAvgMshrMissLatency::cpu.inst 75608.852399                       # average overall mshr miss latency ((Tick/Count))
system.cpu.icache.overallAvgMshrMissLatency::total 75608.852399                       # average overall mshr miss latency ((Tick/Count))
system.cpu.icache.replacements                    271                       # number of replacements (Count)
system.cpu.icache.ReadReq.hits::cpu.inst      3634972                       # number of ReadReq hits (Count)
system.cpu.icache.ReadReq.hits::total         3634972                       # number of ReadReq hits (Count)
system.cpu.icache.ReadReq.misses::cpu.inst          331                       # number of ReadReq misses (Count)
system.cpu.icache.ReadReq.misses::total           331                       # number of ReadReq misses (Count)
system.cpu.icache.ReadReq.missLatency::cpu.inst     25055499                       # number of ReadReq miss ticks (Tick)
system.cpu.icache.ReadReq.missLatency::total     25055499                       # number of ReadReq miss ticks (Tick)
system.cpu.icache.ReadReq.accesses::cpu.inst      3635303                       # number of ReadReq accesses(hits+misses) (Count)
system.cpu.icache.ReadReq.accesses::total      3635303                       # number of ReadReq accesses(hits+misses) (Count)
system.cpu.icache.ReadReq.missRate::cpu.inst     0.000091                       # miss rate for ReadReq accesses (Ratio)
system.cpu.icache.ReadReq.missRate::total     0.000091                       # miss rate for ReadReq accesses (Ratio)
system.cpu.icache.ReadReq.avgMissLatency::cpu.inst 75696.371601                       # average ReadReq miss latency ((Tick/Count))
system.cpu.icache.ReadReq.avgMissLatency::total 75696.371601                       # average ReadReq miss latency ((Tick/Count))
system.cpu.icache.ReadReq.mshrHits::cpu.inst           60                       # number of ReadReq MSHR hits (Count)
system.cpu.icache.ReadReq.mshrHits::total           60                       # number of ReadReq MSHR hits (Count)
system.cpu.icache.ReadReq.mshrMisses::cpu.inst          271                       # number of ReadReq MSHR misses (Count)
system.cpu.icache.ReadReq.mshrMisses::total          271                       # number of ReadReq MSHR misses (Count)
system.cpu.icache.ReadReq.mshrMissLatency::cpu.inst     20489999                       # number of ReadReq MSHR miss ticks (Tick)
system.cpu.icache.ReadReq.mshrMissLatency::total     20489999                       # number of ReadReq MSHR miss ticks (Tick)
system.cpu.icache.ReadReq.mshrMissRate::cpu.inst     0.000075                       # mshr miss rate for ReadReq accesses (Ratio)
system.cpu.icache.ReadReq.mshrMissRate::total     0.000075                       # mshr miss rate for ReadReq accesses (Ratio)
system.cpu.icache.ReadReq.avgMshrMissLatency::cpu.inst 75608.852399                       # average ReadReq mshr miss latency ((Tick/Count))
system.cpu.icache.ReadReq.avgMshrMissLatency::total 75608.852399                       # average ReadReq mshr miss latency ((Tick/Count))
system.cpu.icache.power_state.pwrStateResidencyTicks::UNDEFINED  14990950000                       # Cumulative time (in ticks) in various power states (Tick)
system.cpu.icache.tags.tagsInUse                  256                       # Average ticks per tags in use ((Tick/Count))
system.cpu.icache.tags.totalRefs              3716342                       # Total number of references to valid blocks. (Count)
system.cpu.icache.tags.sampledRefs                527                       # Sample count of references to valid blocks. (Count)
system.cpu.icache.tags.avgRefs            7051.882353                       # Average number of references to valid blocks. ((Count/Count))
system.cpu.icache.tags.warmupTick                   0                       # The tick when the warmup percentage was hit. (Tick)
system.cpu.icache.tags.occupancies::cpu.inst          256                       # Average occupied blocks per tick, per requestor ((Count/Tick))
system.cpu.icache.tags.avgOccs::cpu.inst            1                       # Average percentage of cache occupancy ((Ratio/Tick))
system.cpu.icache.tags.avgOccs::total               1                       # Average percentage of cache occupancy ((Ratio/Tick))
system.cpu.icache.tags.occupanciesTaskId::1024          256                       # Occupied blocks per task id (Count)
system.cpu.icache.tags.ageTaskId_1024::0           79                       # Occupied blocks per task id, per block age (Count)
system.cpu.icache.tags.ageTaskId_1024::1           88                       # Occupied blocks per task id, per block age (Count)
system.cpu.icache.tags.ageTaskId_1024::4           89                       # Occupied blocks per task id, per block age (Count)
system.cpu.icache.tags.ratioOccsTaskId::1024            1                       # Ratio of occupied blocks and all blocks, per task id (Ratio)
system.cpu.icache.tags.tagAccesses           14541483                       # Number of tag accesses (Count)
system.cpu.icache.tags.dataAccesses          14541483                       # Number of data accesses (Count)
system.cpu.icache.tags.power_state.pwrStateResidencyTicks::UNDEFINED  14990950000                       # Cumulative time (in ticks) in various power states (Tick)
system.cpu.iew.idleCycles                           0                       # Number of cycles IEW is idle (Cycle)
system.cpu.iew.squashCycles                      3372                       # Number of cycles IEW is squashing (Cycle)
system.cpu.iew.blockCycles                    9759458                       # Number of cycles IEW is blocking (Cycle)
system.cpu.iew.unblockCycles                   141387                       # Number of cycles IEW is unblocking (Cycle)
system.cpu.iew.dispatchedInsts               62343559                       # Number of instructions dispatched to IQ (Count)
system.cpu.iew.dispSquashedInsts                  152                       # Number of squashed instructions skipped by dispatch (Count)
system.cpu.iew.dispLoadInsts                 10071889                       # Number of dispatched load instructions (Count)
system.cpu.iew.dispStoreInsts                 5101148                       # Number of dispatched store instructions (Count)
system.cpu.iew.dispNonSpecInsts                   240                       # Number of dispatched non-speculative instructions (Count)
system.cpu.iew.iqFullEvents                    100180                       # Number of times the IQ has become full, causing a stall (Count)
system.cpu.iew.lsqFullEvents                     9610                       # Number of times the LSQ has become full, causing a stall (Count)
system.cpu.iew.memOrderViolationEvents            774                       # Number of memory order violations (Count)
system.cpu.iew.predictedTakenIncorrect           1892                       # Number of branches that were predicted taken incorrectly (Count)
system.cpu.iew.predictedNotTakenIncorrect          632                       # Number of branches that were predicted not taken incorrectly (Count)
system.cpu.iew.branchMispredicts                 2524                       # Number of branch mispredicts detected at execute (Count)
system.cpu.iew.instsToCommit                 62297885                       # Cumulative count of insts sent to commit (Count)
system.cpu.iew.writebackCount                62292248                       # Cumulative count of insts written-back (Count)
system.cpu.iew.producerInst                  44059957                       # Number of instructions producing a value (Count)
system.cpu.iew.consumerInst                  53507378                       # Number of instructions consuming a value (Count)
system.cpu.iew.wbRate                        2.224600                       # Insts written-back per cycle ((Count/Cycle))
system.cpu.iew.wbFanout                      0.823437                       # Average fanout of values written-back ((Count/Count))
system.cpu.lsq0.forwLoads                     1073880                       # Number of loads that had data forwarded from stores (Count)
system.cpu.lsq0.squashedLoads                   21488                       # Number of loads squashed (Count)
system.cpu.lsq0.ignoredResponses                    7                       # Number of memory responses ignored because the instruction is squashed (Count)
system.cpu.lsq0.memOrderViolation                 774                       # Number of memory ordering violations (Count)
system.cpu.lsq0.squashedStores                   6282                       # Number of stores squashed (Count)
system.cpu.lsq0.rescheduledLoads                   52                       # Number of loads that were rescheduled (Count)
system.cpu.lsq0.blockedByCache                    117                       # Number of times an access to memory failed due to the cache being blocked (Count)
system.cpu.lsq0.loadToUse::samples           10050401                       # Distribution of cycle latency between the first time a load is issued and its completion (Unspecified)
system.cpu.lsq0.loadToUse::mean              6.255769                       # Distribution of cycle latency between the first time a load is issued and its completion (Unspecified)
system.cpu.lsq0.loadToUse::stdev            23.283839                       # Distribution of cycle latency between the first time a load is issued and its completion (Unspecified)
system.cpu.lsq0.loadToUse::0-9                9863889     98.14%     98.14% # Distribution of cycle latency between the first time a load is issued and its completion (Unspecified)
system.cpu.lsq0.loadToUse::10-19                   65      0.00%     98.14% # Distribution of cycle latency between the first time a load is issued and its completion (Unspecified)
system.cpu.lsq0.loadToUse::20-29                    6      0.00%     98.14% # Distribution of cycle latency between the first time a load is issued and its completion (Unspecified)
system.cpu.lsq0.loadToUse::30-39                    5      0.00%     98.14% # Distribution of cycle latency between the first time a load is issued and its completion (Unspecified)
system.cpu.lsq0.loadToUse::40-49                    5      0.00%     98.15% # Distribution of cycle latency between the first time a load is issued and its completion (Unspecified)
system.cpu.lsq0.loadToUse::50-59                    1      0.00%     98.15% # Distribution of cycle latency between the first time a load is issued and its completion (Unspecified)
system.cpu.lsq0.loadToUse::80-89                    1      0.00%     98.15% # Distribution of cycle latency between the first time a load is issued and its completion (Unspecified)
system.cpu.lsq0.loadToUse::90-99                    1      0.00%     98.15% # Distribution of cycle latency between the first time a load is issued and its completion (Unspecified)
system.cpu.lsq0.loadToUse::100-109                 29      0.00%     98.15% # Distribution of cycle latency between the first time a load is issued and its completion (Unspecified)
system.cpu.lsq0.loadToUse::110-119                 31      0.00%     98.15% # Distribution of cycle latency between the first time a load is issued and its completion (Unspecified)
system.cpu.lsq0.loadToUse::120-129                 12      0.00%     98.15% # Distribution of cycle latency between the first time a load is issued and its completion (Unspecified)
system.cpu.lsq0.loadToUse::130-139                 54      0.00%     98.15% # Distribution of cycle latency between the first time a load is issued and its completion (Unspecified)
system.cpu.lsq0.loadToUse::140-149             120841      1.20%     99.35% # Distribution of cycle latency between the first time a load is issued and its completion (Unspecified)
system.cpu.lsq0.loadToUse::150-159              28741      0.29%     99.63% # Distribution of cycle latency between the first time a load is issued and its completion (Unspecified)
system.cpu.lsq0.loadToUse::160-169              13716      0.14%     99.77% # Distribution of cycle latency between the first time a load is issued and its completion (Unspecified)
system.cpu.lsq0.loadToUse::170-179               8359      0.08%     99.85% # Distribution of cycle latency between the first time a load is issued and its completion (Unspecified)
system.cpu.lsq0.loadToUse::180-189               2475      0.02%     99.88% # Distribution of cycle latency between the first time a load is issued and its completion (Unspecified)
system.cpu.lsq0.loadToUse::190-199                816      0.01%     99.89% # Distribution of cycle latency between the first time a load is issued and its completion (Unspecified)
[...]
system.mem_ctrls.dram.perBankWrBursts::7         2613                       # Per bank write bursts (Count)
system.mem_ctrls.dram.perBankWrBursts::8         4123                       # Per bank write bursts (Count)
system.mem_ctrls.dram.perBankWrBursts::9         3579                       # Per bank write bursts (Count)
system.mem_ctrls.dram.perBankWrBursts::10         4027                       # Per bank write bursts (Count)
system.mem_ctrls.dram.perBankWrBursts::11         3523                       # Per bank write bursts (Count)
system.mem_ctrls.dram.perBankWrBursts::12         2178                       # Per bank write bursts (Count)
system.mem_ctrls.dram.perBankWrBursts::13         4661                       # Per bank write bursts (Count)
system.mem_ctrls.dram.perBankWrBursts::14         2056                       # Per bank write bursts (Count)
system.mem_ctrls.dram.perBankWrBursts::15         4138                       # Per bank write bursts (Count)
system.mem_ctrls.dram.totQLat              1322847500                       # Total ticks spent queuing (Tick)
system.mem_ctrls.dram.totBusLat             769985000                       # Total ticks spent in databus transfers (Tick)
system.mem_ctrls.dram.totMemAccLat         4210291250                       # Total ticks spent from burst creation until serviced by the DRAM (Tick)
system.mem_ctrls.dram.avgQLat                 8590.09                       # Average queueing delay per DRAM burst ((Tick/Count))
system.mem_ctrls.dram.avgBusLat               5000.00                       # Average bus latency per DRAM burst ((Tick/Count))
system.mem_ctrls.dram.avgMemAccLat           27340.09                       # Average memory access latency per DRAM burst ((Tick/Count))
system.mem_ctrls.dram.readRowHits              140860                       # Number of row buffer hits during reads (Count)
system.mem_ctrls.dram.writeRowHits              47031                       # Number of row buffer hits during writes (Count)
system.mem_ctrls.dram.readRowHitRate            91.47                       # Row buffer hit rate for reads (Ratio)
system.mem_ctrls.dram.writeRowHitRate           89.41                       # Row buffer hit rate for writes (Ratio)
system.mem_ctrls.dram.bytesPerActivate::samples        18699                       # Bytes accessed per row activation (Byte)
system.mem_ctrls.dram.bytesPerActivate::mean   707.039307                       # Bytes accessed per row activation (Byte)
system.mem_ctrls.dram.bytesPerActivate::gmean   554.183089                       # Bytes accessed per row activation (Byte)
system.mem_ctrls.dram.bytesPerActivate::stdev   357.726583                       # Bytes accessed per row activation (Byte)
system.mem_ctrls.dram.bytesPerActivate::0-127         1085      5.80%      5.80% # Bytes accessed per row activation (Byte)
system.mem_ctrls.dram.bytesPerActivate::128-255         2093     11.19%     17.00% # Bytes accessed per row activation (Byte)
system.mem_ctrls.dram.bytesPerActivate::256-383         1458      7.80%     24.79% # Bytes accessed per row activation (Byte)
system.mem_ctrls.dram.bytesPerActivate::384-511         1117      5.97%     30.77% # Bytes accessed per row activation (Byte)
system.mem_ctrls.dram.bytesPerActivate::512-639         1199      6.41%     37.18% # Bytes accessed per row activation (Byte)
system.mem_ctrls.dram.bytesPerActivate::640-767         1177      6.29%     43.47% # Bytes accessed per row activation (Byte)
system.mem_ctrls.dram.bytesPerActivate::768-895         1011      5.41%     48.88% # Bytes accessed per row activation (Byte)
system.mem_ctrls.dram.bytesPerActivate::896-1023         1105      5.91%     54.79% # Bytes accessed per row activation (Byte)
system.mem_ctrls.dram.bytesPerActivate::1024-1151         8454     45.21%    100.00% # Bytes accessed per row activation (Byte)
system.mem_ctrls.dram.bytesPerActivate::total        18699                       # Bytes accessed per row activation (Byte)
system.mem_ctrls.dram.bytesRead               9855808                       # Total bytes read (Byte)
system.mem_ctrls.dram.bytesWritten            3366464                       # Total bytes written (Byte)
system.mem_ctrls.dram.avgRdBW              703.947317                       # Average DRAM read bandwidth in MiBytes/s ((Byte/Second))
system.mem_ctrls.dram.avgWrBW              240.448404                       # Average DRAM write bandwidth in MiBytes/s ((Byte/Second))
system.mem_ctrls.dram.peakBW                 12800.00                       # Theoretical peak bandwidth in MiByte/s ((Byte/Second))
system.mem_ctrls.dram.busUtil                    7.38                       # Data bus utilization in percentage (Ratio)
system.mem_ctrls.dram.busUtilRead                5.50                       # Data bus utilization in percentage for reads (Ratio)
system.mem_ctrls.dram.busUtilWrite               1.88                       # Data bus utilization in percentage for writes (Ratio)
system.mem_ctrls.dram.pageHitRate               90.95                       # Row buffer hit rate, read and write combined (Ratio)
system.mem_ctrls.dram.power_state.pwrStateResidencyTicks::UNDEFINED  14990950000                       # Cumulative time (in ticks) in various power states (Tick)
system.mem_ctrls.dram.rank0.actEnergy        64217160                       # Energy for activate commands per rank (pJ) (Joule)
system.mem_ctrls.dram.rank0.preEnergy        34113255                       # Energy for precharge commands per rank (pJ) (Joule)
system.mem_ctrls.dram.rank0.readEnergy      536513880                       # Energy for read commands per rank (pJ) (Joule)
system.mem_ctrls.dram.rank0.writeEnergy     126903420                       # Energy for write commands per rank (pJ) (Joule)
system.mem_ctrls.dram.rank0.refreshEnergy 1105122720.000000                       # Energy for refresh commands per rank (pJ) (Joule)
system.mem_ctrls.dram.rank0.actBackEnergy   3955880940                       # Energy for active background per rank (pJ) (Joule)
system.mem_ctrls.dram.rank0.preBackEnergy   2045431680                       # Energy for precharge background per rank (pJ) (Joule)
system.mem_ctrls.dram.rank0.actPowerDownEnergy            0                       # Energy for active power-down per rank (pJ) (Joule)
system.mem_ctrls.dram.rank0.prePowerDownEnergy            0                       # Energy for precharge power-down per rank (pJ) (Joule)
system.mem_ctrls.dram.rank0.selfRefreshEnergy            0                       # Energy for self refresh per rank (pJ) (Joule)
system.mem_ctrls.dram.rank0.totalEnergy    7868183055                       # Total energy per rank (pJ) (Joule)
system.mem_ctrls.dram.rank0.averagePower   561.981966                       # Core power per rank (mW) (Watt)
system.mem_ctrls.dram.rank0.totalIdleTime            0                       # Total Idle time Per DRAM Rank (Tick)
system.mem_ctrls.dram.rank0.pwrStateTime::IDLE   5267136250                       # Time in different power states (Tick)
system.mem_ctrls.dram.rank0.pwrStateTime::REF    467480000                       # Time in different power states (Tick)
system.mem_ctrls.dram.rank0.pwrStateTime::SREF            0                       # Time in different power states (Tick)
system.mem_ctrls.dram.rank0.pwrStateTime::PRE_PDN            0                       # Time in different power states (Tick)
system.mem_ctrls.dram.rank0.pwrStateTime::ACT   8267206250                       # Time in different power states (Tick)
system.mem_ctrls.dram.rank0.pwrStateTime::ACT_PDN            0                       # Time in different power states (Tick)
system.mem_ctrls.dram.rank1.actEnergy        69393660                       # Energy for activate commands per rank (pJ) (Joule)
system.mem_ctrls.dram.rank1.preEnergy        36853245                       # Energy for precharge commands per rank (pJ) (Joule)
system.mem_ctrls.dram.rank1.readEnergy      563138940                       # Energy for read commands per rank (pJ) (Joule)
system.mem_ctrls.dram.rank1.writeEnergy     147647700                       # Energy for write commands per rank (pJ) (Joule)
system.mem_ctrls.dram.rank1.refreshEnergy 1105122720.000000                       # Energy for refresh commands per rank (pJ) (Joule)
system.mem_ctrls.dram.rank1.actBackEnergy   4113298980                       # Energy for active background per rank (pJ) (Joule)
system.mem_ctrls.dram.rank1.preBackEnergy   1912834560                       # Energy for precharge background per rank (pJ) (Joule)
system.mem_ctrls.dram.rank1.actPowerDownEnergy            0                       # Energy for active power-down per rank (pJ) (Joule)
system.mem_ctrls.dram.rank1.prePowerDownEnergy            0                       # Energy for precharge power-down per rank (pJ) (Joule)
system.mem_ctrls.dram.rank1.selfRefreshEnergy            0                       # Energy for self refresh per rank (pJ) (Joule)
system.mem_ctrls.dram.rank1.totalEnergy    7948289805                       # Total energy per rank (pJ) (Joule)
system.mem_ctrls.dram.rank1.averagePower   567.703560                       # Core power per rank (mW) (Watt)
system.mem_ctrls.dram.rank1.totalIdleTime            0                       # Total Idle time Per DRAM Rank (Tick)
system.mem_ctrls.dram.rank1.pwrStateTime::IDLE   4919297000                       # Time in different power states (Tick)
system.mem_ctrls.dram.rank1.pwrStateTime::REF    467480000                       # Time in different power states (Tick)
system.mem_ctrls.dram.rank1.pwrStateTime::SREF            0                       # Time in different power states (Tick)
system.mem_ctrls.dram.rank1.pwrStateTime::PRE_PDN            0                       # Time in different power states (Tick)
system.mem_ctrls.dram.rank1.pwrStateTime::ACT   8614956000                       # Time in different power states (Tick)
system.mem_ctrls.dram.rank1.pwrStateTime::ACT_PDN            0                       # Time in different power states (Tick)
system.mem_ctrls.power_state.pwrStateResidencyTicks::UNDEFINED  14990950000                       # Cumulative time (in ticks) in various power states (Tick)
system.membus.transDist::ReadResp              153982                       # Transaction distribution (Count)
system.membus.transDist::WritebackDirty         52601                       # Transaction distribution (Count)
system.membus.transDist::CleanEvict            101343                       # Transaction distribution (Count)
system.membus.transDist::ReadExReq                 16                       # Transaction distribution (Count)
system.membus.transDist::ReadExResp                16                       # Transaction distribution (Count)
system.membus.transDist::ReadSharedReq         153981                       # Transaction distribution (Count)
system.membus.pktCount_system.l2.mem_side_port::system.mem_ctrls.port       461939                       # Packet count per connected requestor and responder (Count)
system.membus.pktCount::total                  461939                       # Packet count per connected requestor and responder (Count)
system.membus.pktSize_system.l2.mem_side_port::system.mem_ctrls.port     13222336                       # Cumulative packet size per connected requestor and responder (Byte)
system.membus.pktSize::total                 13222336                       # Cumulative packet size per connected requestor and responder (Byte)
system.membus.snoops                                0                       # Total snoops (Count)
system.membus.snoopTraffic                          0                       # Total snoop traffic (Byte)
system.membus.snoopFanout::samples             153997                       # Request fanout histogram (Count)
system.membus.snoopFanout::mean                     0                       # Request fanout histogram (Count)
system.membus.snoopFanout::stdev                    0                       # Request fanout histogram (Count)
system.membus.snoopFanout::underflows               0      0.00%      0.00% # Request fanout histogram (Count)
system.membus.snoopFanout::0                   153997    100.00%    100.00% # Request fanout histogram (Count)
system.membus.snoopFanout::1                        0      0.00%    100.00% # Request fanout histogram (Count)
system.membus.snoopFanout::overflows                0      0.00%    100.00% # Request fanout histogram (Count)
system.membus.snoopFanout::min_value                0                       # Request fanout histogram (Count)
system.membus.snoopFanout::max_value                0                       # Request fanout histogram (Count)
system.membus.snoopFanout::total               153997                       # Request fanout histogram (Count)
system.membus.power_state.pwrStateResidencyTicks::UNDEFINED  14990950000                       # Cumulative time (in ticks) in various power states (Tick)
system.membus.reqLayer0.occupancy           559912500                       # Layer occupancy (ticks) (Tick)
system.membus.reqLayer0.utilization               0.0                       # Layer utilization (Ratio)
system.membus.respLayer1.occupancy          800941250                       # Layer occupancy (ticks) (Tick)
system.membus.respLayer1.utilization              0.1                       # Layer utilization (Ratio)
system.membus.snoop_filter.totRequests         307941                       # Total number of requests made to the snoop filter. (Count)
system.membus.snoop_filter.hitSingleRequests       153944                       # Number of requests hitting in the snoop filter with a single holder of the requested data. (Count)
system.membus.snoop_filter.hitMultiRequests            0                       # Number of requests hitting in the snoop filter with multiple (>1) holders of the requested data. (Count)
system.membus.snoop_filter.totSnoops                0                       # Total number of snoops made to the snoop filter. (Count)
system.membus.snoop_filter.hitSingleSnoops            0                       # Number of snoops hitting in the snoop filter with a single holder of the requested data. (Count)
system.membus.snoop_filter.hitMultiSnoops            0                       # Number of snoops hitting in the snoop filter with multiple (>1) holders of the requested data. (Count)
system.tol2bus.transDist::ReadResp             154014                       # Transaction distribution (Count)
system.tol2bus.transDist::WritebackDirty       105665                       # Transaction distribution (Count)
system.tol2bus.transDist::WritebackClean          271                       # Transaction distribution (Count)
system.tol2bus.transDist::CleanEvict           202322                       # Transaction distribution (Count)
system.tol2bus.transDist::ReadExReq                16                       # Transaction distribution (Count)
system.tol2bus.transDist::ReadExResp               16                       # Transaction distribution (Count)
system.tol2bus.transDist::ReadCleanReq            271                       # Transaction distribution (Count)
system.tol2bus.transDist::ReadSharedReq        153743                       # Transaction distribution (Count)
system.tol2bus.pktCount_system.cpu.icache.mem_side_port::system.l2.cpu_side_port          813                       # Packet count per connected requestor and responder (Count)
system.tol2bus.pktCount_system.cpu.dcache.mem_side_port::system.l2.cpu_side_port       461277                       # Packet count per connected requestor and responder (Count)
system.tol2bus.pktCount::total                 462090                       # Packet count per connected requestor and responder (Count)
system.tol2bus.pktSize_system.cpu.icache.mem_side_port::system.l2.cpu_side_port        34688                       # Cumulative packet size per connected requestor and responder (Byte)
system.tol2bus.pktSize_system.cpu.dcache.mem_side_port::system.l2.cpu_side_port     13236608                       # Cumulative packet size per connected requestor and responder (Byte)
system.tol2bus.pktSize::total                13271296                       # Cumulative packet size per connected requestor and responder (Byte)
system.tol2bus.snoops                          154228                       # Total snoops (Count)
system.tol2bus.snoopTraffic                   3366528                       # Total snoop traffic (Byte)
system.tol2bus.snoopFanout::samples            308258                       # Request fanout histogram (Count)
system.tol2bus.snoopFanout::mean             0.001557                       # Request fanout histogram (Count)
system.tol2bus.snoopFanout::stdev            0.039430                       # Request fanout histogram (Count)
system.tol2bus.snoopFanout::underflows              0      0.00%      0.00% # Request fanout histogram (Count)
system.tol2bus.snoopFanout::0                  307778     99.84%     99.84% # Request fanout histogram (Count)
system.tol2bus.snoopFanout::1                     480      0.16%    100.00% # Request fanout histogram (Count)
system.tol2bus.snoopFanout::2                       0      0.00%    100.00% # Request fanout histogram (Count)
system.tol2bus.snoopFanout::overflows               0      0.00%    100.00% # Request fanout histogram (Count)
system.tol2bus.snoopFanout::min_value               0                       # Request fanout histogram (Count)
system.tol2bus.snoopFanout::max_value               1                       # Request fanout histogram (Count)
system.tol2bus.snoopFanout::total              308258                       # Request fanout histogram (Count)
system.tol2bus.power_state.pwrStateResidencyTicks::UNDEFINED  14990950000                       # Cumulative time (in ticks) in various power states (Tick)
system.tol2bus.reqLayer0.occupancy          207364000                       # Layer occupancy (ticks) (Tick)
system.tol2bus.reqLayer0.utilization              0.0                       # Layer utilization (Ratio)
system.tol2bus.respLayer0.occupancy            406500                       # Layer occupancy (ticks) (Tick)
system.tol2bus.respLayer0.utilization             0.0                       # Layer utilization (Ratio)
system.tol2bus.respLayer1.occupancy         230638500                       # Layer occupancy (ticks) (Tick)
system.tol2bus.respLayer1.utilization             0.0                       # Layer utilization (Ratio)
system.tol2bus.snoop_filter.totRequests        308060                       # Total number of requests made to the snoop filter. (Count)
system.tol2bus.snoop_filter.hitSingleRequests       154031                       # Number of requests hitting in the snoop filter with a single holder of the requested data. (Count)
system.tol2bus.snoop_filter.hitMultiRequests            0                       # Number of requests hitting in the snoop filter with multiple (>1) holders of the requested data. (Count)
system.tol2bus.snoop_filter.totSnoops             479                       # Total number of snoops made to the snoop filter. (Count)
system.tol2bus.snoop_filter.hitSingleSnoops          479                       # Number of snoops hitting in the snoop filter with a single holder of the requested data. (Count)
system.tol2bus.snoop_filter.hitMultiSnoops            0                       # Number of snoops hitting in the snoop filter with multiple (>1) holders of the requested data. (Count)
system.voltage_domain.voltage                       1                       # Voltage in Volts (Volt)
system.workload.inst.arm                            0                       # number of arm instructions executed (Count)
system.workload.inst.quiesce                        0                       # number of quiesce instructions executed (Count)

---------- End Simulation Statistics   ----------
