
---------- Begin Simulation Statistics ----------
simSeconds                                   0.000437                       # Number of seconds simulated (Second)
simTicks                                    436947000                       # Number of ticks simulated (Tick)
finalTick                                  1437619000                       # Number of ticks from beginning of simulation (restored from checkpoints and never reset) (Tick)
simFreq                                  1000000000000                       # The number of ticks per simulated second ((Tick/Second))
hostSeconds                                      4.76                       # Real time elapsed on the host (Second)
hostTickRate                                 91840859                       # The number of ticks simulated per host second (ticks/s) ((Tick/Second))
hostMemory                                     680136                       # Number of bytes of host memory used (Byte)
simInsts                                      3381929                       # Number of instructions simulated (Count)
simOps                                        3814540                       # Number of ops (including micro ops) simulated (Count)
hostInstRate                                   710820                       # Simulator instruction rate (inst/s) ((Count/Second))
hostOpRate                                     801745                       # Simulator op (including micro ops) rate (op/s) ((Count/Second))
system.clk_domain.clock                          1000                       # Clock period in ticks (Tick)
system.cpu.numCycles                           873894                       # Number of cpu cycles simulated (Cycle)
system.cpu.numWorkItemsStarted                      0                       # Number of work items this cpu started (Count)
system.cpu.numWorkItemsCompleted                    0                       # Number of work items this cpu completed (Count)
system.cpu.instsAdded                         1888311                       # Number of instructions added to the IQ (excludes non-spec) (Count)
system.cpu.nonSpecInstsAdded                        2                       # Number of non-speculative instructions added to the IQ (Count)
system.cpu.instsIssued                        1886830                       # Number of instructions issued (Count)
system.cpu.squashedInstsIssued                      1                       # Number of squashed instructions issued (Count)
system.cpu.squashedInstsExamined                 2997                       # Number of squashed instructions iterated over during squash; mainly for profiling (Count)
system.cpu.squashedOperandsExamined              4119                       # Number of squashed operands that are examined and possibly removed from graph (Count)
system.cpu.squashedNonSpecRemoved                   1                       # Number of squashed non-spec instructions that were removed (Count)
system.cpu.numIssuedDist::samples              873701                       # Number of insts issued each cycle (Count)
system.cpu.numIssuedDist::mean               2.159583                       # Number of insts issued each cycle (Count)
system.cpu.numIssuedDist::stdev              1.932552                       # Number of insts issued each cycle (Count)
system.cpu.numIssuedDist::underflows                0      0.00%      0.00% # Number of insts issued each cycle (Count)
system.cpu.numIssuedDist::0                    254582     29.14%     29.14% # Number of insts issued each cycle (Count)
system.cpu.numIssuedDist::1                    139460     15.96%     45.10% # Number of insts issued each cycle (Count)
system.cpu.numIssuedDist::2                    127601     14.60%     59.70% # Number of insts issued each cycle (Count)
system.cpu.numIssuedDist::3                     77994      8.93%     68.63% # Number of insts issued each cycle (Count)
system.cpu.numIssuedDist::4                    165487     18.94%     87.57% # Number of insts issued each cycle (Count)
system.cpu.numIssuedDist::5                     70124      8.03%     95.60% # Number of insts issued each cycle (Count)
system.cpu.numIssuedDist::6                     27110      3.10%     98.70% # Number of insts issued each cycle (Count)
system.cpu.numIssuedDist::7                      7786      0.89%     99.59% # Number of insts issued each cycle (Count)
system.cpu.numIssuedDist::8                      3557      0.41%    100.00% # Number of insts issued each cycle (Count)
system.cpu.numIssuedDist::overflows                 0      0.00%    100.00% # Number of insts issued each cycle (Count)
system.cpu.numIssuedDist::min_value                 0                       # Number of insts issued each cycle (Count)
system.cpu.numIssuedDist::max_value                 8                       # Number of insts issued each cycle (Count)
system.cpu.numIssuedDist::total                873701                       # Number of insts issued each cycle (Count)
system.cpu.statFuBusy::No_OpClass                   0      0.00%      0.00% # attempts to use FU when none available (Count)
system.cpu.statFuBusy::IntAlu                       4     50.00%     50.00% # attempts to use FU when none available (Count)
system.cpu.statFuBusy::IntMult                      0      0.00%     50.00% # attempts to use FU when none available (Count)
system.cpu.statFuBusy::IntDiv                       0      0.00%     50.00% # attempts to use FU when none available (Count)
system.cpu.statFuBusy::FloatAdd                     0      0.00%     50.00% # attempts to use FU when none available (Count)
system.cpu.statFuBusy::FloatCmp                     0      0.00%     50.00% # attempts to use FU when none available (Count)
system.cpu.statFuBusy::FloatCvt                     0      0.00%     50.00% # attempts to use FU when none available (Count)
system.cpu.statFuBusy::FloatMult                    0      0.00%     50.00% # attempts to use FU when none available (Count)
system.cpu.statFuBusy::FloatMultAcc                 0      0.00%     50.00% # attempts to use FU when none available (Count)
system.cpu.statFuBusy::FloatDiv                     0      0.00%     50.00% # attempts to use FU when none available (Count)
system.cpu.statFuBusy::FloatMisc                    0      0.00%     50.00% # attempts to use FU when none available (Count)
system.cpu.statFuBusy::FloatSqrt                    0      0.00%     50.00% # attempts to use FU when none available (Count)
system.cpu.statFuBusy::SimdAdd                      0      0.00%     50.00% # attempts to use FU when none available (Count)
system.cpu.statFuBusy::SimdAddAcc                   0      0.00%     50.00% # attempts to use FU when none available (Count)
system.cpu.statFuBusy::SimdAlu                      0      0.00%     50.00% # attempts to use FU when none available (Count)
system.cpu.statFuBusy::SimdCmp                      0      0.00%     50.00% # attempts to use FU when none available (Count)
system.cpu.statFuBusy::SimdCvt                      0      0.00%     50.00% # attempts to use FU when none available (Count)
system.cpu.statFuBusy::SimdMisc                     0      0.00%     50.00% # attempts to use FU when none available (Count)
system.cpu.statFuBusy::SimdMult                     0      0.00%     50.00% # attempts to use FU when none available (Count)
system.cpu.statFuBusy::SimdMultAcc                  0      0.00%     50.00% # attempts to use FU when none available (Count)
system.cpu.statFuBusy::SimdShift                    0      0.00%     50.00% # attempts to use FU when none available (Count)
system.cpu.statFuBusy::SimdShiftAcc                 0      0.00%     50.00% # attempts to use FU when none available (Count)
system.cpu.statFuBusy::SimdDiv                      0      0.00%     50.00% # attempts to use FU when none available (Count)
system.cpu.statFuBusy::SimdSqrt                     0      0.00%     50.00% # attempts to use FU when none available (Count)
system.cpu.statFuBusy::SimdFloatAdd                 0      0.00%     50.00% # attempts to use FU when none available (Count)
system.cpu.statFuBusy::SimdFloatAlu                 0      0.00%     50.00% # attempts to use FU when none available (Count)
system.cpu.statFuBusy::SimdFloatCmp                 0      0.00%     50.00% # attempts to use FU when none available (Count)
system.cpu.statFuBusy::SimdFloatCvt                 0      0.00%     50.00% # attempts to use FU when none available (Count)
system.cpu.statFuBusy::SimdFloatDiv                 0      0.00%     50.00% # attempts to use FU when none available (Count)
system.cpu.statFuBusy::SimdFloatMisc                0      0.00%     50.00% # attempts to use FU when none available (Count)
system.cpu.statFuBusy::SimdFloatMult                0      0.00%     50.00% # attempts to use FU when none available (Count)
system.cpu.statFuBusy::SimdFloatMultAcc             0      0.00%     50.00% # attempts to use FU when none available (Count)
system.cpu.statFuBusy::SimdFloatSqrt                0      0.00%     50.00% # attempts to use FU when none available (Count)
system.cpu.statFuBusy::SimdReduceAdd                0      0.00%     50.00% # attempts to use FU when none available (Count)
system.cpu.statFuBusy::SimdReduceAlu                0      0.00%     50.00% # attempts to use FU when none available (Count)
system.cpu.statFuBusy::SimdReduceCmp                0      0.00%     50.00% # attempts to use FU when none available (Count)
system.cpu.statFuBusy::SimdFloatReduceAdd            0      0.00%     50.00% # attempts to use FU when none available (Count)
system.cpu.statFuBusy::SimdFloatReduceCmp            0      0.00%     50.00% # attempts to use FU when none available (Count)
system.cpu.statFuBusy::SimdAes                      0      0.00%     50.00% # attempts to use FU when none available (Count)
system.cpu.statFuBusy::SimdAesMix                   0      0.00%     50.00% # attempts to use FU when none available (Count)
system.cpu.statFuBusy::SimdSha1Hash                 0      0.00%     50.00% # attempts to use FU when none available (Count)
system.cpu.statFuBusy::SimdSha1Hash2                0      0.00%     50.00% # attempts to use FU when none available (Count)
system.cpu.statFuBusy::SimdSha256Hash               0      0.00%     50.00% # attempts to use FU when none available (Count)
system.cpu.statFuBusy::SimdSha256Hash2              0      0.00%     50.00% # attempts to use FU when none available (Count)
system.cpu.statFuBusy::SimdShaSigma2                0      0.00%     50.00% # attempts to use FU when none available (Count)
system.cpu.statFuBusy::SimdShaSigma3                0      0.00%     50.00% # attempts to use FU when none available (Count)
system.cpu.statFuBusy::SimdPredAlu                  0      0.00%     50.00% # attempts to use FU when none available (Count)
system.cpu.statFuBusy::MemRead                      0      0.00%     50.00% # attempts to use FU when none available (Count)
system.cpu.statFuBusy::MemWrite                     4     50.00%    100.00% # attempts to use FU when none available (Count)
system.cpu.statFuBusy::FloatMemRead                 0      0.00%    100.00% # attempts to use FU when none available (Count)
system.cpu.statFuBusy::FloatMemWrite                0      0.00%    100.00% # attempts to use FU when none available (Count)
system.cpu.statFuBusy::IprAccess                    0      0.00%    100.00% # attempts to use FU when none available (Count)
system.cpu.statFuBusy::InstPrefetch                 0      0.00%    100.00% # attempts to use FU when none available (Count)
system.cpu.statIssuedInstType_0::No_OpClass        81553      4.32%      4.32% # Number of instructions issued per FU type, per thread (Count)
system.cpu.statIssuedInstType_0::IntAlu        926784     49.12%     53.44% # Number of instructions issued per FU type, per thread (Count)
system.cpu.statIssuedInstType_0::IntMult            0      0.00%     53.44% # Number of instructions issued per FU type, per thread (Count)
system.cpu.statIssuedInstType_0::IntDiv             0      0.00%     53.44% # Number of instructions issued per FU type, per thread (Count)
system.cpu.statIssuedInstType_0::FloatAdd            0      0.00%     53.44% # Number of instructions issued per FU type, per thread (Count)
system.cpu.statIssuedInstType_0::FloatCmp            0      0.00%     53.44% # Number of instructions issued per FU type, per thread (Count)
system.cpu.statIssuedInstType_0::FloatCvt            0      0.00%     53.44% # Number of instructions issued per FU type, per thread (Count)
system.cpu.statIssuedInstType_0::FloatMult            0      0.00%     53.44% # Number of instructions issued per FU type, per thread (Count)
system.cpu.statIssuedInstType_0::FloatMultAcc            0      0.00%     53.44% # Number of instructions issued per FU type, per thread (Count)
system.cpu.statIssuedInstType_0::FloatDiv            0      0.00%     53.44% # Number of instructions issued per FU type, per thread (Count)
system.cpu.statIssuedInstType_0::FloatMisc            0      0.00%     53.44% # Number of instructions issued per FU type, per thread (Count)
system.cpu.statIssuedInstType_0::FloatSqrt            0      0.00%     53.44% # Number of instructions issued per FU type, per thread (Count)
system.cpu.statIssuedInstType_0::SimdAdd       156824      8.31%     61.75% # Number of instructions issued per FU type, per thread (Count)
system.cpu.statIssuedInstType_0::SimdAddAcc            0      0.00%     61.75% # Number of instructions issued per FU type, per thread (Count)
system.cpu.statIssuedInstType_0::SimdAlu       319942     16.96%     78.71% # Number of instructions issued per FU type, per thread (Count)
system.cpu.statIssuedInstType_0::SimdCmp            0      0.00%     78.71% # Number of instructions issued per FU type, per thread (Count)
system.cpu.statIssuedInstType_0::SimdCvt            0      0.00%     78.71% # Number of instructions issued per FU type, per thread (Count)
system.cpu.statIssuedInstType_0::SimdMisc       156824      8.31%     87.02% # Number of instructions issued per FU type, per thread (Count)
system.cpu.statIssuedInstType_0::SimdMult            0      0.00%     87.02% # Number of instructions issued per FU type, per thread (Count)
system.cpu.statIssuedInstType_0::SimdMultAcc            0      0.00%     87.02% # Number of instructions issued per FU type, per thread (Count)
system.cpu.statIssuedInstType_0::SimdShift            0      0.00%     87.02% # Number of instructions issued per FU type, per thread (Count)
system.cpu.statIssuedInstType_0::SimdShiftAcc            0      0.00%     87.02% # Number of instructions issued per FU type, per thread (Count)
system.cpu.statIssuedInstType_0::SimdDiv            0      0.00%     87.02% # Number of instructions issued per FU type, per thread (Count)
system.cpu.statIssuedInstType_0::SimdSqrt            0      0.00%     87.02% # Number of instructions issued per FU type, per thread (Count)
system.cpu.statIssuedInstType_0::SimdFloatAdd            0      0.00%     87.02% # Number of instructions issued per FU type, per thread (Count)
system.cpu.statIssuedInstType_0::SimdFloatAlu            0      0.00%     87.02% # Number of instructions issued per FU type, per thread (Count)
system.cpu.statIssuedInstType_0::SimdFloatCmp            0      0.00%     87.02% # Number of instructions issued per FU type, per thread (Count)
system.cpu.statIssuedInstType_0::SimdFloatCvt            0      0.00%     87.02% # Number of instructions issued per FU type, per thread (Count)
system.cpu.statIssuedInstType_0::SimdFloatDiv            0      0.00%     87.02% # Number of instructions issued per FU type, per thread (Count)
system.cpu.statIssuedInstType_0::SimdFloatMisc            0      0.00%     87.02% # Number of instructions issued per FU type, per thread (Count)
system.cpu.statIssuedInstType_0::SimdFloatMult            0      0.00%     87.02% # Number of instructions issued per FU type, per thread (Count)
system.cpu.statIssuedInstType_0::SimdFloatMultAcc            0      0.00%     87.02% # Number of instructions issued per FU type, per thread (Count)
system.cpu.statIssuedInstType_0::SimdFloatSqrt            0      0.00%     87.02% # Number of instructions issued per FU type, per thread (Count)
system.cpu.statIssuedInstType_0::SimdReduceAdd            0      0.00%     87.02% # Number of instructions issued per FU type, per thread (Count)
system.cpu.statIssuedInstType_0::SimdReduceAlu            0      0.00%     87.02% # Number of instructions issued per FU type, per thread (Count)
system.cpu.statIssuedInstType_0::SimdReduceCmp            0      0.00%     87.02% # Number of instructions issued per FU type, per thread (Count)
system.cpu.statIssuedInstType_0::SimdFloatReduceAdd            0      0.00%     87.02% # Number of instructions issued per FU type, per thread (Count)
system.cpu.statIssuedInstType_0::SimdFloatReduceCmp            0      0.00%     87.02% # Number of instructions issued per FU type, per thread (Count)
system.cpu.statIssuedInstType_0::SimdAes            0      0.00%     87.02% # Number of instructions issued per FU type, per thread (Count)
system.cpu.statIssuedInstType_0::SimdAesMix            0      0.00%     87.02% # Number of instructions issued per FU type, per thread (Count)
system.cpu.statIssuedInstType_0::SimdSha1Hash            0      0.00%     87.02% # Number of instructions issued per FU type, per thread (Count)
system.cpu.statIssuedInstType_0::SimdSha1Hash2            0      0.00%     87.02% # Number of instructions issued per FU type, per thread (Count)
system.cpu.statIssuedInstType_0::SimdSha256Hash            0      0.00%     87.02% # Number of instructions issued per FU type, per thread (Count)
system.cpu.statIssuedInstType_0::SimdSha256Hash2            0      0.00%     87.02% # Number of instructions issued per FU type, per thread (Count)
system.cpu.statIssuedInstType_0::SimdShaSigma2            0      0.00%     87.02% # Number of instructions issued per FU type, per thread (Count)
system.cpu.statIssuedInstType_0::SimdShaSigma3            0      0.00%     87.02% # Number of instructions issued per FU type, per thread (Count)
system.cpu.statIssuedInstType_0::SimdPredAlu            0      0.00%     87.02% # Number of instructions issued per FU type, per thread (Count)
system.cpu.statIssuedInstType_0::MemRead       166479      8.82%     95.84% # Number of instructions issued per FU type, per thread (Count)
system.cpu.statIssuedInstType_0::MemWrite        78424      4.16%    100.00% # Number of instructions issued per FU type, per thread (Count)
system.cpu.statIssuedInstType_0::FloatMemRead            0      0.00%    100.00% # Number of instructions issued per FU type, per thread (Count)
system.cpu.statIssuedInstType_0::FloatMemWrite            0      0.00%    100.00% # Number of instructions issued per FU type, per thread (Count)
system.cpu.statIssuedInstType_0::IprAccess            0      0.00%    100.00% # Number of instructions issued per FU type, per thread (Count)
system.cpu.statIssuedInstType_0::InstPrefetch            0      0.00%    100.00% # Number of instructions issued per FU type, per thread (Count)
system.cpu.statIssuedInstType_0::total        1886830                       # Number of instructions issued per FU type, per thread (Count)
system.cpu.issueRate                         2.159106                       # Inst issue rate ((Count/Cycle))
system.cpu.fuBusy                                   8                       # FU busy when requested (Count)
system.cpu.fuBusyRate                        0.000004                       # FU busy rate (busy events/executed inst) ((Count/Count))
system.cpu.intInstQueueReads                  2890516                       # Number of integer instruction queue reads (Count)
system.cpu.intInstQueueWrites                 1010611                       # Number of integer instruction queue writes (Count)
system.cpu.intInstQueueWakeupAccesses         1008285                       # Number of integer instruction queue wakeup accesses (Count)
system.cpu.fpInstQueueReads                         0                       # Number of floating instruction queue reads (Count)
system.cpu.fpInstQueueWrites                        0                       # Number of floating instruction queue writes (Count)
system.cpu.fpInstQueueWakeupAccesses                0                       # Number of floating instruction queue wakeup accesses (Count)
system.cpu.vecInstQueueReads                  1756850                       # Number of vector instruction queue reads (Count)
system.cpu.vecInstQueueWrites                  880701                       # Number of vector instruction queue writes (Count)
system.cpu.vecInstQueueWakeupAccesses          878381                       # Number of vector instruction queue wakeup accesses (Count)
system.cpu.intAluAccesses                     1008413                       # Number of integer alu accesses (Count)
system.cpu.fpAluAccesses                            0                       # Number of floating point alu accesses (Count)
system.cpu.vecAluAccesses                      796872                       # Number of vector alu accesses (Count)
system.cpu.numInsts                           1886727                       # Number of executed instructions (Count)
system.cpu.numLoadInsts                        166475                       # Number of load instructions executed (Count)
system.cpu.numSquashedInsts                        99                       # Number of squashed instructions skipped in execute (Count)
system.cpu.numSwp                                   0                       # Number of swp insts executed (Count)
system.cpu.numNop                                3167                       # Number of nop insts executed (Count)
system.cpu.numRefs                             244899                       # Number of memory reference insts executed (Count)
system.cpu.numBranches                         103698                       # Number of branches executed (Count)
system.cpu.numStoreInsts                        78424                       # Number of stores executed (Count)
system.cpu.numRate                           2.158988                       # Inst execution rate ((Count/Cycle))
system.cpu.timesIdled                               2                       # Number of times that the entire CPU went into an idle state and unscheduled itself (Count)
system.cpu.idleCycles                             193                       # Total number of cycles that the CPU has spent unscheduled due to idling (Cycle)
system.cpu.committedInsts                     1722144                       # Number of Instructions Simulated (Count)
system.cpu.committedOps                       1885216                       # Number of Ops (including micro ops) Simulated (Count)
system.cpu.cpi                               0.507445                       # CPI: Cycles Per Instruction ((Cycle/Count))
system.cpu.totalCpi                          0.507445                       # CPI: Total CPI of All Threads ((Cycle/Count))
system.cpu.ipc                               1.970655                       # IPC: Instructions Per Cycle ((Count/Cycle))
system.cpu.totalIpc                          1.970655                       # IPC: Total IPC of All Threads ((Count/Cycle))
system.cpu.intRegfileReads                    1570051                       # Number of integer regfile reads (Count)
system.cpu.intRegfileWrites                    879299                       # Number of integer regfile writes (Count)
system.cpu.vecRegfileReads                    1844454                       # number of vector regfile reads (Count)
system.cpu.ccRegfileReads                      311076                       # number of cc regfile reads (Count)
system.cpu.ccRegfileWrites                     311085                       # number of cc regfile writes (Count)
system.cpu.miscRegfileReads                   1672222                       # number of misc regfile reads (Count)
system.cpu.MemDepUnit__0.insertedLoads         166601                       # Number of loads inserted to the mem dependence unit. (Count)
system.cpu.MemDepUnit__0.insertedStores         78516                       # Number of stores inserted to the mem dependence unit. (Count)
system.cpu.MemDepUnit__0.conflictingLoads         3074                       # Number of conflicting loads. (Count)
system.cpu.MemDepUnit__0.conflictingStores        78334                       # Number of conflicting stores. (Count)
system.cpu.MemDepUnit__1.insertedLoads              0                       # Number of loads inserted to the mem dependence unit. (Count)
system.cpu.MemDepUnit__1.insertedStores             0                       # Number of stores inserted to the mem dependence unit. (Count)
system.cpu.MemDepUnit__1.conflictingLoads            0                       # Number of conflicting loads. (Count)
system.cpu.MemDepUnit__1.conflictingStores            0                       # Number of conflicting stores. (Count)
system.cpu.MemDepUnit__2.insertedLoads              0                       # Number of loads inserted to the mem dependence unit. (Count)
system.cpu.MemDepUnit__2.insertedStores             0                       # Number of stores inserted to the mem dependence unit. (Count)
system.cpu.MemDepUnit__2.conflictingLoads            0                       # Number of conflicting loads. (Count)
system.cpu.MemDepUnit__2.conflictingStores            0                       # Number of conflicting stores. (Count)
system.cpu.MemDepUnit__3.insertedLoads              0                       # Number of loads inserted to the mem dependence unit. (Count)
system.cpu.MemDepUnit__3.insertedStores             0                       # Number of stores inserted to the mem dependence unit. (Count)
system.cpu.MemDepUnit__3.conflictingLoads            0                       # Number of conflicting loads. (Count)
system.cpu.MemDepUnit__3.conflictingStores            0                       # Number of conflicting stores. (Count)
system.cpu.branchPred.lookups                  103898                       # Number of BP lookups (Count)
system.cpu.branchPred.condPredicted            103842                       # Number of conditional branches predicted (Count)
system.cpu.branchPred.condIncorrect                76                       # Number of conditional branches incorrect (Count)
system.cpu.branchPred.BTBLookups                78594                       # Number of BTB lookups (Count)
system.cpu.branchPred.BTBUpdates                   12                       # Number of BTB updates (Count)
system.cpu.branchPred.BTBHits                   78567                       # Number of BTB hits (Count)
system.cpu.branchPred.BTBHitRatio            0.999656                       # BTB Hit Ratio (Ratio)
system.cpu.branchPred.RASUsed                       4                       # Number of times the RAS was used to get a target. (Count)
system.cpu.branchPred.RASIncorrect                  0                       # Number of incorrect RAS predictions. (Count)
system.cpu.branchPred.indirectLookups              28                       # Number of indirect predictor lookups. (Count)
system.cpu.branchPred.indirectHits                  0                       # Number of indirect target hits. (Count)
system.cpu.branchPred.indirectMisses               28                       # Number of indirect misses. (Count)
system.cpu.branchPred.indirectMispredicted            0                       # Number of mispredicted indirect branches. (Count)
system.cpu.commit.commitSquashedInsts            2249                       # The number of squashed insts skipped by commit (Count)
system.cpu.commit.commitNonSpecStalls               1                       # The number of times commit has been forced to stall to communicate backwards (Count)
system.cpu.commit.branchMispredicts                74                       # The number of times a branch was mispredicted (Count)
system.cpu.commit.numCommittedDist::samples       873378                       # Number of insts commited each cycle (Count)
system.cpu.commit.numCommittedDist::mean     2.162125                       # Number of insts commited each cycle (Count)
system.cpu.commit.numCommittedDist::stdev     2.833320                       # Number of insts commited each cycle (Count)
system.cpu.commit.numCommittedDist::underflows            0      0.00%      0.00% # Number of insts commited each cycle (Count)
system.cpu.commit.numCommittedDist::0          310967     35.61%     35.61% # Number of insts commited each cycle (Count)
system.cpu.commit.numCommittedDist::1          256540     29.37%     64.98% # Number of insts commited each cycle (Count)
system.cpu.commit.numCommittedDist::2          107552     12.31%     77.29% # Number of insts commited each cycle (Count)
system.cpu.commit.numCommittedDist::3            3255      0.37%     77.67% # Number of insts commited each cycle (Count)
system.cpu.commit.numCommittedDist::4            1625      0.19%     77.85% # Number of insts commited each cycle (Count)
system.cpu.commit.numCommittedDist::5           10977      1.26%     79.11% # Number of insts commited each cycle (Count)
system.cpu.commit.numCommittedDist::6           56048      6.42%     85.53% # Number of insts commited each cycle (Count)
system.cpu.commit.numCommittedDist::7            2042      0.23%     85.76% # Number of insts commited each cycle (Count)
system.cpu.commit.numCommittedDist::8          124372     14.24%    100.00% # Number of insts commited each cycle (Count)
system.cpu.commit.numCommittedDist::overflows            0      0.00%    100.00% # Number of insts commited each cycle (Count)
system.cpu.commit.numCommittedDist::min_value            0                       # Number of insts commited each cycle (Count)
system.cpu.commit.numCommittedDist::max_value            8                       # Number of insts commited each cycle (Count)
system.cpu.commit.numCommittedDist::total       873378                       # Number of insts commited each cycle (Count)
system.cpu.commit.instsCommitted              1725280                       # Number of instructions committed (Count)
system.cpu.commit.opsCommitted                1888352                       # Number of ops (including micro ops) committed (Count)
system.cpu.commit.memRefs                      244612                       # Number of memory references committed (Count)
system.cpu.commit.loads                        166212                       # Number of loads committed (Count)
system.cpu.commit.amos                              0                       # Number of atomic instructions committed (Count)
system.cpu.commit.membars                           0                       # Number of memory barriers committed (Count)
system.cpu.commit.branches                     103550                       # Number of branches committed (Count)
system.cpu.commit.vectorInstructions           878080                       # Number of committed Vector instructions. (Count)
system.cpu.commit.floating                          0                       # Number of committed floating point instructions. (Count)
system.cpu.commit.integer                     1223460                       # Number of committed integer instructions. (Count)
system.cpu.commit.functionCalls                     1                       # Number of function calls committed. (Count)
system.cpu.commit.committedInstType_0::No_OpClass        81536      4.32%      4.32% # Class of committed instruction (Count)
system.cpu.commit.committedInstType_0::IntAlu       928730     49.18%     53.50% # Class of committed instruction (Count)
system.cpu.commit.committedInstType_0::IntMult            2      0.00%     53.50% # Class of committed instruction (Count)
system.cpu.commit.committedInstType_0::IntDiv            0      0.00%     53.50% # Class of committed instruction (Count)
system.cpu.commit.committedInstType_0::FloatAdd            0      0.00%     53.50% # Class of committed instruction (Count)
system.cpu.commit.committedInstType_0::FloatCmp            0      0.00%     53.50% # Class of committed instruction (Count)
system.cpu.commit.committedInstType_0::FloatCvt            0      0.00%     53.50% # Class of committed instruction (Count)
system.cpu.commit.committedInstType_0::FloatMult            0      0.00%     53.50% # Class of committed instruction (Count)
system.cpu.commit.committedInstType_0::FloatMultAcc            0      0.00%     53.50% # Class of committed instruction (Count)
system.cpu.commit.committedInstType_0::FloatDiv            0      0.00%     53.50% # Class of committed instruction (Count)
system.cpu.commit.committedInstType_0::FloatMisc            0      0.00%     53.50% # Class of committed instruction (Count)
system.cpu.commit.committedInstType_0::FloatSqrt            0      0.00%     53.50% # Class of committed instruction (Count)
system.cpu.commit.committedInstType_0::SimdAdd       156800      8.30%     61.80% # Class of committed instruction (Count)
system.cpu.commit.committedInstType_0::SimdAddAcc            0      0.00%     61.80% # Class of committed instruction (Count)
system.cpu.commit.committedInstType_0::SimdAlu       319872     16.94%     78.74% # Class of committed instruction (Count)
system.cpu.commit.committedInstType_0::SimdCmp            0      0.00%     78.74% # Class of committed instruction (Count)
system.cpu.commit.committedInstType_0::SimdCvt            0      0.00%     78.74% # Class of committed instruction (Count)
system.cpu.commit.committedInstType_0::SimdMisc       156800      8.30%     87.05% # Class of committed instruction (Count)
system.cpu.commit.committedInstType_0::SimdMult            0      0.00%     87.05% # Class of committed instruction (Count)
system.cpu.commit.committedInstType_0::SimdMultAcc            0      0.00%     87.05% # Class of committed instruction (Count)
system.cpu.commit.committedInstType_0::SimdShift            0      0.00%     87.05% # Class of committed instruction (Count)
system.cpu.commit.committedInstType_0::SimdShiftAcc            0      0.00%     87.05% # Class of committed instruction (Count)
system.cpu.commit.committedInstType_0::SimdDiv            0      0.00%     87.05% # Class of committed instruction (Count)
system.cpu.commit.committedInstType_0::SimdSqrt            0      0.00%     87.05% # Class of committed instruction (Count)
system.cpu.commit.committedInstType_0::SimdFloatAdd            0      0.00%     87.05% # Class of committed instruction (Count)
system.cpu.commit.committedInstType_0::SimdFloatAlu            0      0.00%     87.05% # Class of committed instruction (Count)
system.cpu.commit.committedInstType_0::SimdFloatCmp            0      0.00%     87.05% # Class of committed instruction (Count)
system.cpu.commit.committedInstType_0::SimdFloatCvt            0      0.00%     87.05% # Class of committed instruction (Count)
system.cpu.commit.committedInstType_0::SimdFloatDiv            0      0.00%     87.05% # Class of committed instruction (Count)
system.cpu.commit.committedInstType_0::SimdFloatMisc            0      0.00%     87.05% # Class of committed instruction (Count)
system.cpu.commit.committedInstType_0::SimdFloatMult            0      0.00%     87.05% # Class of committed instruction (Count)
system.cpu.commit.committedInstType_0::SimdFloatMultAcc            0      0.00%     87.05% # Class of committed instruction (Count)
system.cpu.commit.committedInstType_0::SimdFloatSqrt            0      0.00%     87.05% # Class of committed instruction (Count)
system.cpu.commit.committedInstType_0::SimdReduceAdd            0      0.00%     87.05% # Class of committed instruction (Count)
system.cpu.commit.committedInstType_0::SimdReduceAlu            0      0.00%     87.05% # Class of committed instruction (Count)
system.cpu.commit.committedInstType_0::SimdReduceCmp            0      0.00%     87.05% # Class of committed instruction (Count)
system.cpu.commit.committedInstType_0::SimdFloatReduceAdd            0      0.00%     87.05% # Class of committed instruction (Count)
system.cpu.commit.committedInstType_0::SimdFloatReduceCmp            0      0.00%     87.05% # Class of committed instruction (Count)
system.cpu.commit.committedInstType_0::SimdAes            0      0.00%     87.05% # Class of committed instruction (Count)
system.cpu.commit.committedInstType_0::SimdAesMix            0      0.00%     87.05% # Class of committed instruction (Count)
system.cpu.commit.committedInstType_0::SimdSha1Hash            0      0.00%     87.05% # Class of committed instruction (Count)
system.cpu.commit.committedInstType_0::SimdSha1Hash2            0      0.00%     87.05% # Class of committed instruction (Count)
system.cpu.commit.committedInstType_0::SimdSha256Hash            0      0.00%     87.05% # Class of committed instruction (Count)
system.cpu.commit.committedInstType_0::SimdSha256Hash2            0      0.00%     87.05% # Class of committed instruction (Count)
system.cpu.commit.committedInstType_0::SimdShaSigma2            0      0.00%     87.05% # Class of committed instruction (Count)
system.cpu.commit.committedInstType_0::SimdShaSigma3            0      0.00%     87.05% # Class of committed instruction (Count)
system.cpu.commit.committedInstType_0::SimdPredAlu            0      0.00%     87.05% # Class of committed instruction (Count)
system.cpu.commit.committedInstType_0::MemRead       166212      8.80%     95.85% # Class of committed instruction (Count)
system.cpu.commit.committedInstType_0::MemWrite        78400      4.15%    100.00% # Class of committed instruction (Count)
system.cpu.commit.committedInstType_0::FloatMemRead            0      0.00%    100.00% # Class of committed instruction (Count)
system.cpu.commit.committedInstType_0::FloatMemWrite            0      0.00%    100.00% # Class of committed instruction (Count)
system.cpu.commit.committedInstType_0::IprAccess            0      0.00%    100.00% # Class of committed instruction (Count)
system.cpu.commit.committedInstType_0::InstPrefetch            0      0.00%    100.00% # Class of committed instruction (Count)
system.cpu.commit.committedInstType_0::total      1888352                       # Class of committed instruction (Count)
system.cpu.commit.commitEligibleSamples        124372                       # number cycles where commit BW limit reached (Cycle)
system.cpu.dcache.demandHits::cpu.data         242789                       # number of demand (read+write) hits (Count)
system.cpu.dcache.demandHits::total            242789                       # number of demand (read+write) hits (Count)
system.cpu.dcache.overallHits::cpu.data        242789                       # number of overall hits (Count)
system.cpu.dcache.overallHits::total           242789                       # number of overall hits (Count)
system.cpu.dcache.demandMisses::cpu.data         2056                       # number of demand (read+write) misses (Count)
system.cpu.dcache.demandMisses::total            2056                       # number of demand (read+write) misses (Count)
system.cpu.dcache.overallMisses::cpu.data         2056                       # number of overall misses (Count)
system.cpu.dcache.overallMisses::total           2056                       # number of overall misses (Count)
system.cpu.dcache.demandMissLatency::cpu.data    163548500                       # number of demand (read+write) miss ticks (Tick)
system.cpu.dcache.demandMissLatency::total    163548500                       # number of demand (read+write) miss ticks (Tick)
system.cpu.dcache.overallMissLatency::cpu.data    163548500                       # number of overall miss ticks (Tick)
system.cpu.dcache.overallMissLatency::total    163548500                       # number of overall miss ticks (Tick)
system.cpu.dcache.demandAccesses::cpu.data       244845                       # number of demand (read+write) accesses (Count)
system.cpu.dcache.demandAccesses::total        244845                       # number of demand (read+write) accesses (Count)
system.cpu.dcache.overallAccesses::cpu.data       244845                       # number of overall (read+write) accesses (Count)
system.cpu.dcache.overallAccesses::total       244845                       # number of overall (read+write) accesses (Count)
system.cpu.dcache.demandMissRate::cpu.data     0.008397                       # miss rate for demand accesses (Ratio)
system.cpu.dcache.demandMissRate::total      0.008397                       # miss rate for demand accesses (Ratio)
system.cpu.dcache.overallMissRate::cpu.data     0.008397                       # miss rate for overall accesses (Ratio)
system.cpu.dcache.overallMissRate::total     0.008397                       # miss rate for overall accesses (Ratio)
system.cpu.dcache.demandAvgMissLatency::cpu.data 79546.935798                       # average overall miss latency in ticks ((Tick/Count))
system.cpu.dcache.demandAvgMissLatency::total 79546.935798                       # average overall miss latency in ticks ((Tick/Count))
system.cpu.dcache.overallAvgMissLatency::cpu.data 79546.935798                       # average overall miss latency ((Tick/Count))
system.cpu.dcache.overallAvgMissLatency::total 79546.935798                       # average overall miss latency ((Tick/Count))
system.cpu.dcache.blockedCycles::no_mshrs            0                       # number of cycles access was blocked (Cycle)
system.cpu.dcache.blockedCycles::no_targets            0                       # number of cycles access was blocked (Cycle)
system.cpu.dcache.blockedCauses::no_mshrs            0                       # number of times access was blocked (Count)
system.cpu.dcache.blockedCauses::no_targets            0                       # number of times access was blocked (Count)
system.cpu.dcache.avgBlocked::no_mshrs            nan                       # average number of cycles each access was blocked ((Cycle/Count))
system.cpu.dcache.avgBlocked::no_targets          nan                       # average number of cycles each access was blocked ((Cycle/Count))
system.cpu.dcache.writebacks::writebacks          581                       # number of writebacks (Count)
system.cpu.dcache.writebacks::total               581                       # number of writebacks (Count)
system.cpu.dcache.demandMshrHits::cpu.data           55                       # number of demand (read+write) MSHR hits (Count)
system.cpu.dcache.demandMshrHits::total            55                       # number of demand (read+write) MSHR hits (Count)
system.cpu.dcache.overallMshrHits::cpu.data           55                       # number of overall MSHR hits (Count)
system.cpu.dcache.overallMshrHits::total           55                       # number of overall MSHR hits (Count)
system.cpu.dcache.demandMshrMisses::cpu.data         2001                       # number of demand (read+write) MSHR misses (Count)
system.cpu.dcache.demandMshrMisses::total         2001                       # number of demand (read+write) MSHR misses (Count)
system.cpu.dcache.overallMshrMisses::cpu.data         2001                       # number of overall MSHR misses (Count)
system.cpu.dcache.overallMshrMisses::total         2001                       # number of overall MSHR misses (Count)
system.cpu.dcache.demandMshrMissLatency::cpu.data    158928000                       # number of demand (read+write) MSHR miss ticks (Tick)
system.cpu.dcache.demandMshrMissLatency::total    158928000                       # number of demand (read+write) MSHR miss ticks (Tick)
system.cpu.dcache.overallMshrMissLatency::cpu.data    158928000                       # number of overall MSHR miss ticks (Tick)
system.cpu.dcache.overallMshrMissLatency::total    158928000                       # number of overall MSHR miss ticks (Tick)
system.cpu.dcache.demandMshrMissRate::cpu.data     0.008173                       # mshr miss ratio for demand accesses (Ratio)
system.cpu.dcache.demandMshrMissRate::total     0.008173                       # mshr miss ratio for demand accesses (Ratio)
system.cpu.dcache.overallMshrMissRate::cpu.data     0.008173                       # mshr miss ratio for overall accesses (Ratio)
system.cpu.dcache.overallMshrMissRate::total     0.008173                       # mshr miss ratio for overall accesses (Ratio)
system.cpu.dcache.demandAvgMshrMissLatency::cpu.data 79424.287856                       # average overall mshr miss latency ((Tick/Count))
system.cpu.dcache.demandAvgMshrMissLatency::total 79424.287856                       # average overall mshr miss latency ((Tick/Count))
system.cpu.dcache.overallAvgMshrMissLatency::cpu.data 79424.287856                       # average overall mshr miss latency ((Tick/Count))
system.cpu.dcache.overallAvgMshrMissLatency::total 79424.287856                       # average overall mshr miss latency ((Tick/Count))
system.cpu.dcache.replacements                   2001                       # number of replacements (Count)
system.cpu.dcache.ReadReq.hits::cpu.data       164389                       # number of ReadReq hits (Count)
system.cpu.dcache.ReadReq.hits::total          164389                       # number of ReadReq hits (Count)
system.cpu.dcache.ReadReq.misses::cpu.data         2056                       # number of ReadReq misses (Count)
system.cpu.dcache.ReadReq.misses::total          2056                       # number of ReadReq misses (Count)
system.cpu.dcache.ReadReq.missLatency::cpu.data    163548500                       # number of ReadReq miss ticks (Tick)
system.cpu.dcache.ReadReq.missLatency::total    163548500                       # number of ReadReq miss ticks (Tick)
system.cpu.dcache.ReadReq.accesses::cpu.data       166445                       # number of ReadReq accesses(hits+misses) (Count)
system.cpu.dcache.ReadReq.accesses::total       166445                       # number of ReadReq accesses(hits+misses) (Count)
system.cpu.dcache.ReadReq.missRate::cpu.data     0.012352                       # miss rate for ReadReq accesses (Ratio)
system.cpu.dcache.ReadReq.missRate::total     0.012352                       # miss rate for ReadReq accesses (Ratio)
system.cpu.dcache.ReadReq.avgMissLatency::cpu.data 79546.935798                       # average ReadReq miss latency ((Tick/Count))
system.cpu.dcache.ReadReq.avgMissLatency::total 79546.935798                       # average ReadReq miss latency ((Tick/Count))
system.cpu.dcache.ReadReq.mshrHits::cpu.data           55                       # number of ReadReq MSHR hits (Count)
system.cpu.dcache.ReadReq.mshrHits::total           55                       # number of ReadReq MSHR hits (Count)
system.cpu.dcache.ReadReq.mshrMisses::cpu.data         2001                       # number of ReadReq MSHR misses (Count)
system.cpu.dcache.ReadReq.mshrMisses::total         2001                       # number of ReadReq MSHR misses (Count)
system.cpu.dcache.ReadReq.mshrMissLatency::cpu.data    158928000                       # number of ReadReq MSHR miss ticks (Tick)
system.cpu.dcache.ReadReq.mshrMissLatency::total    158928000                       # number of ReadReq MSHR miss ticks (Tick)
system.cpu.dcache.ReadReq.mshrMissRate::cpu.data     0.012022                       # mshr miss rate for ReadReq accesses (Ratio)
system.cpu.dcache.ReadReq.mshrMissRate::total     0.012022                       # mshr miss rate for ReadReq accesses (Ratio)
system.cpu.dcache.ReadReq.avgMshrMissLatency::cpu.data 79424.287856                       # average ReadReq mshr miss latency ((Tick/Count))
system.cpu.dcache.ReadReq.avgMshrMissLatency::total 79424.287856                       # average ReadReq mshr miss latency ((Tick/Count))
system.cpu.dcache.WriteReq.hits::cpu.data        78400                       # number of WriteReq hits (Count)
system.cpu.dcache.WriteReq.hits::total          78400                       # number of WriteReq hits (Count)
system.cpu.dcache.WriteReq.accesses::cpu.data        78400                       # number of WriteReq accesses(hits+misses) (Count)
system.cpu.dcache.WriteReq.accesses::total        78400                       # number of WriteReq accesses(hits+misses) (Count)
system.cpu.dcache.power_state.pwrStateResidencyTicks::UNDEFINED   1437619000                       # Cumulative time (in ticks) in various power states (Tick)
system.cpu.dcache.tags.tagsInUse                 1024                       # Average ticks per tags in use ((Tick/Count))
system.cpu.dcache.tags.totalRefs               103410                       # Total number of references to valid blocks. (Count)
system.cpu.dcache.tags.sampledRefs               2001                       # Sample count of references to valid blocks. (Count)
system.cpu.dcache.tags.avgRefs              51.679160                       # Average number of references to valid blocks. ((Count/Count))
system.cpu.dcache.tags.warmupTick                   0                       # The tick when the warmup percentage was hit. (Tick)
system.cpu.dcache.tags.occupancies::cpu.data         1024                       # Average occupied blocks per tick, per requestor ((Count/Tick))
system.cpu.dcache.tags.avgOccs::cpu.data            1                       # Average percentage of cache occupancy ((Ratio/Tick))
system.cpu.dcache.tags.avgOccs::total               1                       # Average percentage of cache occupancy ((Ratio/Tick))
system.cpu.dcache.tags.occupanciesTaskId::1024         1024                       # Occupied blocks per task id (Count)
system.cpu.dcache.tags.ageTaskId_1024::0           46                       # Occupied blocks per task id, per block age (Count)
system.cpu.dcache.tags.ageTaskId_1024::1          410                       # Occupied blocks per task id, per block age (Count)
system.cpu.dcache.tags.ageTaskId_1024::2          568                       # Occupied blocks per task id, per block age (Count)
system.cpu.dcache.tags.ratioOccsTaskId::1024            1                       # Ratio of occupied blocks and all blocks, per task id (Ratio)
system.cpu.dcache.tags.tagAccesses             981381                       # Number of tag accesses (Count)
system.cpu.dcache.tags.dataAccesses            981381                       # Number of data accesses (Count)
system.cpu.dcache.tags.power_state.pwrStateResidencyTicks::UNDEFINED   1437619000                       # Cumulative time (in ticks) in various power states (Tick)
system.cpu.decode.idleCycles                   223187                       # Number of cycles decode is idle (Cycle)
system.cpu.decode.blockedCycles                261148                       # Number of cycles decode is blocked (Cycle)
system.cpu.decode.runCycles                    377366                       # Number of cycles decode is running (Cycle)
system.cpu.decode.unblockCycles                 11894                       # Number of cycles decode is unblocking (Cycle)
system.cpu.decode.squashCycles                    106                       # Number of cycles decode is squashing (Cycle)
system.cpu.decode.branchResolved                78559                       # Number of times decode resolved a branch (Count)
system.cpu.decode.branchMispred                     3                       # Number of times decode detected a branch misprediction (Count)
system.cpu.decode.decodedInsts                1893108                       # Number of instructions handled by decode (Count)
system.cpu.decode.squashedInsts                    11                       # Number of squashed instructions handled by decode (Count)
system.cpu.fetch.icacheStallCycles             239221                       # Number of cycles fetch is stalled on an Icache miss (Cycle)
system.cpu.fetch.insts                        1730188                       # Number of instructions fetch has processed (Count)
system.cpu.fetch.branches                      103898                       # Number of branches that fetch encountered (Count)
system.cpu.fetch.predictedBranches              78571                       # Number of branches that fetch has predicted taken (Count)
system.cpu.fetch.cycles                        634372                       # Number of cycles fetch has run and was not squashing or blocked (Cycle)
system.cpu.fetch.squashCycles                     216                       # Number of cycles fetch has spent squashing (Cycle)
system.cpu.fetch.cacheLines                    239048                       # Number of cache lines fetched (Count)
system.cpu.fetch.icacheSquashes                    11                       # Number of outstanding Icache misses that were squashed (Count)
system.cpu.fetch.nisnDist::samples             873701                       # Number of instructions fetched each cycle (Total) (Count)
system.cpu.fetch.nisnDist::mean              2.167596                       # Number of instructions fetched each cycle (Total) (Count)
system.cpu.fetch.nisnDist::stdev             3.052693                       # Number of instructions fetched each cycle (Total) (Count)
system.cpu.fetch.nisnDist::underflows               0      0.00%      0.00% # Number of instructions fetched each cycle (Total) (Count)
system.cpu.fetch.nisnDist::0                   471193     53.93%     53.93% # Number of instructions fetched each cycle (Total) (Count)
system.cpu.fetch.nisnDist::1                       58      0.01%     53.94% # Number of instructions fetched each cycle (Total) (Count)
system.cpu.fetch.nisnDist::2                   205772     23.55%     77.49% # Number of instructions fetched each cycle (Total) (Count)
system.cpu.fetch.nisnDist::3                        3      0.00%     77.49% # Number of instructions fetched each cycle (Total) (Count)
system.cpu.fetch.nisnDist::4                    14125      1.62%     79.11% # Number of instructions fetched each cycle (Total) (Count)
system.cpu.fetch.nisnDist::5                       55      0.01%     79.11% # Number of instructions fetched each cycle (Total) (Count)
system.cpu.fetch.nisnDist::6                    17255      1.97%     81.09% # Number of instructions fetched each cycle (Total) (Count)
system.cpu.fetch.nisnDist::7                        5      0.00%     81.09% # Number of instructions fetched each cycle (Total) (Count)
system.cpu.fetch.nisnDist::8                   165235     18.91%    100.00% # Number of instructions fetched each cycle (Total) (Count)
system.cpu.fetch.nisnDist::overflows                0      0.00%    100.00% # Number of instructions fetched each cycle (Total) (Count)
system.cpu.fetch.nisnDist::min_value                0                       # Number of instructions fetched each cycle (Total) (Count)
system.cpu.fetch.nisnDist::max_value                8                       # Number of instructions fetched each cycle (Total) (Count)
system.cpu.fetch.nisnDist::total               873701                       # Number of instructions fetched each cycle (Total) (Count)
system.cpu.fetch.branchRate                  0.118891                       # Number of branch fetches per cycle (Ratio)
system.cpu.fetch.rate                        1.979860                       # Number of inst fetches per cycle ((Count/Cycle))
system.cpu.icache.demandHits::cpu.inst         239044                       # number of demand (read+write) hits (Count)
system.cpu.icache.demandHits::total            239044                       # number of demand (read+write) hits (Count)
system.cpu.icache.overallHits::cpu.inst        239044                       # number of overall hits (Count)
system.cpu.icache.overallHits::total           239044                       # number of overall hits (Count)
system.cpu.icache.demandMisses::cpu.inst            4                       # number of demand (read+write) misses (Count)
system.cpu.icache.demandMisses::total               4                       # number of demand (read+write) misses (Count)
system.cpu.icache.overallMisses::cpu.inst            4                       # number of overall misses (Count)
system.cpu.icache.overallMisses::total              4                       # number of overall misses (Count)
system.cpu.icache.demandMissLatency::cpu.inst       318000                       # number of demand (read+write) miss ticks (Tick)
system.cpu.icache.demandMissLatency::total       318000                       # number of demand (read+write) miss ticks (Tick)
system.cpu.icache.overallMissLatency::cpu.inst       318000                       # number of overall miss ticks (Tick)
system.cpu.icache.overallMissLatency::total       318000                       # number of overall miss ticks (Tick)
system.cpu.icache.demandAccesses::cpu.inst       239048                       # number of demand (read+write) accesses (Count)
system.cpu.icache.demandAccesses::total        239048                       # number of demand (read+write) accesses (Count)
system.cpu.icache.overallAccesses::cpu.inst       239048                       # number of overall (read+write) accesses (Count)
system.cpu.icache.overallAccesses::total       239048                       # number of overall (read+write) accesses (Count)
system.cpu.icache.demandMissRate::cpu.inst     0.000017                       # miss rate for demand accesses (Ratio)
system.cpu.icache.demandMissRate::total      0.000017                       # miss rate for demand accesses (Ratio)
system.cpu.icache.overallMissRate::cpu.inst     0.000017                       # miss rate for overall accesses (Ratio)
system.cpu.icache.overallMissRate::total     0.000017                       # miss rate for overall accesses (Ratio)
system.cpu.icache.demandAvgMissLatency::cpu.inst        79500                       # average overall miss latency in ticks ((Tick/Count))
system.cpu.icache.demandAvgMissLatency::total        79500                       # average overall miss latency in ticks ((Tick/Count))
system.cpu.icache.overallAvgMissLatency::cpu.inst        79500                       # average overall miss latency ((Tick/Count))
system.cpu.icache.overallAvgMissLatency::total        79500                       # average overall miss latency ((Tick/Count))
system.cpu.icache.blockedCycles::no_mshrs            0                       # number of cycles access was blocked (Cycle)
system.cpu.icache.blockedCycles::no_targets            0                       # number of cycles access was blocked (Cycle)
system.cpu.icache.blockedCauses::no_mshrs            0                       # number of times access was blocked (Count)
system.cpu.icache.blockedCauses::no_targets            0                       # number of times access was blocked (Count)
system.cpu.icache.avgBlocked::no_mshrs            nan                       # average number of cycles each access was blocked ((Cycle/Count))
system.cpu.icache.avgBlocked::no_targets          nan                       # average number of cycles each access was blocked ((Cycle/Count))
system.cpu.icache.writebacks::writebacks            3                       # number of writebacks (Count)
system.cpu.icache.writebacks::total                 3                       # number of writebacks (Count)
system.cpu.icache.demandMshrHits::cpu.inst            2                       # number of demand (read+write) MSHR hits (Count)
system.cpu.icache.demandMshrHits::total             2                       # number of demand (read+write) MSHR hits (Count)
system.cpu.icache.overallMshrHits::cpu.inst            2                       # number of overall MSHR hits (Count)
system.cpu.icache.overallMshrHits::total            2                       # number of overall MSHR hits (Count)
system.cpu.icache.demandMshrMisses::cpu.inst            2                       # number of demand (read+write) MSHR misses (Count)
system.cpu.icache.demandMshrMisses::total            2                       # number of demand (read+write) MSHR misses (Count)
system.cpu.icache.overallMshrMisses::cpu.inst            2                       # number of overall MSHR misses (Count)
system.cpu.icache.overallMshrMisses::total            2                       # number of overall MSHR misses (Count)
system.cpu.icache.demandMshrMissLatency::cpu.inst       213500                       # number of demand (read+write) MSHR miss ticks (Tick)
system.cpu.icache.demandMshrMissLatency::total       213500                       # number of demand (read+write) MSHR miss ticks (Tick)
system.cpu.icache.overallMshrMissLatency::cpu.inst       213500                       # number of overall MSHR miss ticks (Tick)
system.cpu.icache.overallMshrMissLatency::total       213500                       # number of overall MSHR miss ticks (Tick)
system.cpu.icache.demandMshrMissRate::cpu.inst     0.000008                       # mshr miss ratio for demand accesses (Ratio)
system.cpu.icache.demandMshrMissRate::total     0.000008                       # mshr miss ratio for demand accesses (Ratio)
system.cpu.icache.overallMshrMissRate::cpu.inst     0.000008                       # mshr miss ratio for overall accesses (Ratio)
system.cpu.icache.overallMshrMissRate::total     0.000008                       # mshr miss ratio for overall accesses (Ratio)
system.cpu.icache.demandAvgMshrMissLatency::cpu.inst       106750                       # average overall mshr miss latency ((Tick/Count))
system.cpu.icache.demandAvgMshrMissLatency::total       106750                       # average overall mshr miss latency ((Tick/Count))
system.cpu.icache.overallAvgMshrMissLatency::cpu.inst       106750                       # average overall mshr miss latency ((Tick/Count))
system.cpu.icache.overallAvgMshrMissLatency::total       106750                       # average overall mshr miss latency ((Tick/Count))
system.cpu.icache.replacements                      3                       # number of replacements (Count)
system.cpu.icache.ReadReq.hits::cpu.inst       239044                       # number of ReadReq hits (Count)
system.cpu.icache.ReadReq.hits::total          239044                       # number of ReadReq hits (Count)
system.cpu.icache.ReadReq.misses::cpu.inst            4                       # number of ReadReq misses (Count)
system.cpu.icache.ReadReq.misses::total             4                       # number of ReadReq misses (Count)
system.cpu.icache.ReadReq.missLatency::cpu.inst       318000                       # number of ReadReq miss ticks (Tick)
system.cpu.icache.ReadReq.missLatency::total       318000                       # number of ReadReq miss ticks (Tick)
system.cpu.icache.ReadReq.accesses::cpu.inst       239048                       # number of ReadReq accesses(hits+misses) (Count)
system.cpu.icache.ReadReq.accesses::total       239048                       # number of ReadReq accesses(hits+misses) (Count)
system.cpu.icache.ReadReq.missRate::cpu.inst     0.000017                       # miss rate for ReadReq accesses (Ratio)
system.cpu.icache.ReadReq.missRate::total     0.000017                       # miss rate for ReadReq accesses (Ratio)
system.cpu.icache.ReadReq.avgMissLatency::cpu.inst        79500                       # average ReadReq miss latency ((Tick/Count))
system.cpu.icache.ReadReq.avgMissLatency::total        79500                       # average ReadReq miss latency ((Tick/Count))
system.cpu.icache.ReadReq.mshrHits::cpu.inst            2                       # number of ReadReq MSHR hits (Count)
system.cpu.icache.ReadReq.mshrHits::total            2                       # number of ReadReq MSHR hits (Count)
system.cpu.icache.ReadReq.mshrMisses::cpu.inst            2                       # number of ReadReq MSHR misses (Count)
system.cpu.icache.ReadReq.mshrMisses::total            2                       # number of ReadReq MSHR misses (Count)
system.cpu.icache.ReadReq.mshrMissLatency::cpu.inst       213500                       # number of ReadReq MSHR miss ticks (Tick)
system.cpu.icache.ReadReq.mshrMissLatency::total       213500                       # number of ReadReq MSHR miss ticks (Tick)
system.cpu.icache.ReadReq.mshrMissRate::cpu.inst     0.000008                       # mshr miss rate for ReadReq accesses (Ratio)
system.cpu.icache.ReadReq.mshrMissRate::total     0.000008                       # mshr miss rate for ReadReq accesses (Ratio)
system.cpu.icache.ReadReq.avgMshrMissLatency::cpu.inst       106750                       # average ReadReq mshr miss latency ((Tick/Count))
system.cpu.icache.ReadReq.avgMshrMissLatency::total       106750                       # average ReadReq mshr miss latency ((Tick/Count))
system.cpu.icache.power_state.pwrStateResidencyTicks::UNDEFINED   1437619000                       # Cumulative time (in ticks) in various power states (Tick)
system.cpu.icache.tags.tagsInUse                  256                       # Average ticks per tags in use ((Tick/Count))
system.cpu.icache.tags.totalRefs                   13                       # Total number of references to valid blocks. (Count)
system.cpu.icache.tags.sampledRefs                  3                       # Sample count of references to valid blocks. (Count)
system.cpu.icache.tags.avgRefs               4.333333                       # Average number of references to valid blocks. ((Count/Count))
system.cpu.icache.tags.warmupTick                   0                       # The tick when the warmup percentage was hit. (Tick)
system.cpu.icache.tags.occupancies::cpu.inst          256                       # Average occupied blocks per tick, per requestor ((Count/Tick))
system.cpu.icache.tags.avgOccs::cpu.inst            1                       # Average percentage of cache occupancy ((Ratio/Tick))
system.cpu.icache.tags.avgOccs::total               1                       # Average percentage of cache occupancy ((Ratio/Tick))
system.cpu.icache.tags.occupanciesTaskId::1024          256                       # Occupied blocks per task id (Count)
system.cpu.icache.tags.ageTaskId_1024::2          238                       # Occupied blocks per task id, per block age (Count)
system.cpu.icache.tags.ageTaskId_1024::3           18                       # Occupied blocks per task id, per block age (Count)
system.cpu.icache.tags.ratioOccsTaskId::1024            1                       # Ratio of occupied blocks and all blocks, per task id (Ratio)
system.cpu.icache.tags.tagAccesses             956195                       # Number of tag accesses (Count)
system.cpu.icache.tags.dataAccesses            956195                       # Number of data accesses (Count)
system.cpu.icache.tags.power_state.pwrStateResidencyTicks::UNDEFINED   1437619000                       # Cumulative time (in ticks) in various power states (Tick)
system.cpu.iew.idleCycles                           0                       # Number of cycles IEW is idle (Cycle)
system.cpu.iew.squashCycles                       106                       # Number of cycles IEW is squashing (Cycle)
system.cpu.iew.blockCycles                     196979                       # Number of cycles IEW is blocking (Cycle)
system.cpu.iew.unblockCycles                     1577                       # Number of cycles IEW is unblocking (Cycle)
system.cpu.iew.dispatchedInsts                1891480                       # Number of instructions dispatched to IQ (Count)
system.cpu.iew.dispSquashedInsts                  453                       # Number of squashed instructions skipped by dispatch (Count)
system.cpu.iew.dispLoadInsts                   166601                       # Number of dispatched load instructions (Count)
system.cpu.iew.dispStoreInsts                   78516                       # Number of dispatched store instructions (Count)
system.cpu.iew.dispNonSpecInsts                     2                       # Number of dispatched non-speculative instructions (Count)
system.cpu.iew.iqFullEvents                         1                       # Number of times the IQ has become full, causing a stall (Count)
system.cpu.iew.lsqFullEvents                        0                       # Number of times the LSQ has become full, causing a stall (Count)
system.cpu.iew.memOrderViolationEvents              2                       # Number of memory order violations (Count)
system.cpu.iew.predictedTakenIncorrect             64                       # Number of branches that were predicted taken incorrectly (Count)
system.cpu.iew.predictedNotTakenIncorrect           15                       # Number of branches that were predicted not taken incorrectly (Count)
system.cpu.iew.branchMispredicts                   79                       # Number of branch mispredicts detected at execute (Count)
system.cpu.iew.instsToCommit                  1886698                       # Cumulative count of insts sent to commit (Count)
system.cpu.iew.writebackCount                 1886666                       # Cumulative count of insts written-back (Count)
system.cpu.iew.producerInst                   1461732                       # Number of instructions producing a value (Count)
system.cpu.iew.consumerInst                   2034434                       # Number of instructions consuming a value (Count)
system.cpu.iew.wbRate                        2.158919                       # Insts written-back per cycle ((Count/Cycle))
system.cpu.iew.wbFanout                      0.718496                       # Average fanout of values written-back ((Count/Count))
system.cpu.lsq0.forwLoads                           0                       # Number of loads that had data forwarded from stores (Count)
system.cpu.lsq0.squashedLoads                     371                       # Number of loads squashed (Count)
system.cpu.lsq0.ignoredResponses                    0                       # Number of memory responses ignored because the instruction is squashed (Count)
system.cpu.lsq0.memOrderViolation                   2                       # Number of memory ordering violations (Count)
system.cpu.lsq0.squashedStores                     92                       # Number of stores squashed (Count)
system.cpu.lsq0.rescheduledLoads                    0                       # Number of loads that were rescheduled (Count)
system.cpu.lsq0.blockedByCache                      0                       # Number of times an access to memory failed due to the cache being blocked (Count)
system.cpu.lsq0.loadToUse::samples             166212                       # Distribution of cycle latency between the first time a load is issued and its completion (Unspecified)
system.cpu.lsq0.loadToUse::mean              5.419633                       # Distribution of cycle latency between the first time a load is issued and its completion (Unspecified)
system.cpu.lsq0.loadToUse::stdev            19.615448                       # Distribution of cycle latency between the first time a load is issued and its completion (Unspecified)
system.cpu.lsq0.loadToUse::0-9                 164179     98.78%     98.78% # Distribution of cycle latency between the first time a load is issued and its completion (Unspecified)
system.cpu.lsq0.loadToUse::20-29                    1      0.00%     98.78% # Distribution of cycle latency between the first time a load is issued and its completion (Unspecified)
system.cpu.lsq0.loadToUse::100-109                  2      0.00%     98.78% # Distribution of cycle latency between the first time a load is issued and its completion (Unspecified)
system.cpu.lsq0.loadToUse::110-119                  6      0.00%     98.78% # Distribution of cycle latency between the first time a load is issued and its completion (Unspecified)
system.cpu.lsq0.loadToUse::120-129                  8      0.00%     98.79% # Distribution of cycle latency between the first time a load is issued and its completion (Unspecified)
system.cpu.lsq0.loadToUse::130-139                  8      0.00%     98.79% # Distribution of cycle latency between the first time a load is issued and its completion (Unspecified)
system.cpu.lsq0.loadToUse::140-149               1802      1.08%     99.88% # Distribution of cycle latency between the first time a load is issued and its completion (Unspecified)
system.cpu.lsq0.loadToUse::150-159                  1      0.00%     99.88% # Distribution of cycle latency between the first time a load is issued and its completion (Unspecified)
system.cpu.lsq0.loadToUse::170-179                119      0.07%     99.95% # Distribution of cycle latency between the first time a load is issued and its completion (Unspecified)
system.cpu.lsq0.loadToUse::180-189                  4      0.00%     99.95% # Distribution of cycle latency between the first time a load is issued and its completion (Unspecified)
system.cpu.lsq0.loadToUse::190-199                  2      0.00%     99.95% # Distribution of cycle latency between the first time a load is issued and its completion (Unspecified)
system.cpu.lsq0.loadToUse::200-209                 22      0.01%     99.97% # Distribution of cycle latency between the first time a load is issued and its completion (Unspecified)
system.cpu.lsq0.loadToUse::230-239                  1      0.00%     99.97% # Distribution of cycle latency between the first time a load is issued and its completion (Unspecified)
system.cpu.lsq0.loadToUse::280-289                  1      0.00%     99.97% # Distribution of cycle latency between the first time a load is issued and its completion (Unspecified)
system.cpu.lsq0.loadToUse::overflows               56      0.03%    100.00% # Distribution of cycle latency between the first time a load is issued and its completion (Unspecified)
system.cpu.lsq0.loadToUse::min_value                3                       # Distribution of cycle latency between the first time a load is issued and its completion (Unspecified)
system.cpu.lsq0.loadToUse::max_value              718                       # Distribution of cycle latency between the first time a load is issued and its completion (Unspecified)
system.cpu.lsq0.loadToUse::total               166212                       # Distribution of cycle latency between the first time a load is issued and its completion (Unspecified)
system.cpu.mmu.alignFaults                          0                       # Number of MMU faults due to alignment restrictions (Count)
system.cpu.mmu.prefetchFaults                       0                       # Number of MMU faults due to prefetch (Count)
system.cpu.mmu.domainFaults                         0                       # Number of MMU faults due to domain restrictions (Count)
system.cpu.mmu.permsFaults                          0                       # Number of MMU faults due to permissions restrictions (Count)
system.cpu.mmu.dtb.readHits                         0                       # Read hits (Count)
system.cpu.mmu.dtb.readMisses                       0                       # Read misses (Count)
system.cpu.mmu.dtb.writeHits                        0                       # Write hits (Count)
system.cpu.mmu.dtb.writeMisses                      0                       # Write misses (Count)
system.cpu.mmu.dtb.inserts                          0                       # Number of times an entry is inserted into the TLB (Count)
system.cpu.mmu.dtb.flushTlb                         0                       # Number of times a TLB invalidation was requested (Count)
system.cpu.mmu.dtb.flushedEntries                   0                       # Number of entries that have been flushed from TLB (Count)
system.cpu.mmu.dtb.readAccesses                     0                       # Read accesses (Count)
system.cpu.mmu.dtb.writeAccesses                    0                       # Write accesses (Count)
system.cpu.mmu.dtb.hits                             0                       # Total TLB (inst and data) hits (Count)
system.cpu.mmu.dtb.misses                           0                       # Total TLB (inst and data) misses (Count)
system.cpu.mmu.dtb.accesses                         0                       # Total TLB (inst and data) accesses (Count)
system.cpu.mmu.dtb_walker.walks                     0                       # Table walker walks requested (Count)
system.cpu.mmu.dtb_walker.requestOrigin_Requested::Data            0                       # Table walker requests started/completed, data/inst (Count)
system.cpu.mmu.dtb_walker.requestOrigin_Requested::Inst            0                       # Table walker requests started/completed, data/inst (Count)
system.cpu.mmu.dtb_walker.requestOrigin_Requested::total            0                       # Table walker requests started/completed, data/inst (Count)
system.cpu.mmu.dtb_walker.requestOrigin_Completed::Data            0                       # Table walker requests started/completed, data/inst (Count)
system.cpu.mmu.dtb_walker.requestOrigin_Completed::Inst            0                       # Table walker requests started/completed, data/inst (Count)
system.cpu.mmu.dtb_walker.requestOrigin_Completed::total            0                       # Table walker requests started/completed, data/inst (Count)
system.cpu.mmu.dtb_walker.requestOrigin::total            0                       # Table walker requests started/completed, data/inst (Count)
system.cpu.mmu.dtb_walker.power_state.pwrStateResidencyTicks::UNDEFINED   1437619000                       # Cumulative time (in ticks) in various power states (Tick)
system.cpu.mmu.itb.instHits                         0                       # Inst hits (Count)
system.cpu.mmu.itb.instMisses                       0                       # Inst misses (Count)
system.cpu.mmu.itb.inserts                          0                       # Number of times an entry is inserted into the TLB (Count)
system.cpu.mmu.itb.flushTlb                         0                       # Number of times a TLB invalidation was requested (Count)
system.cpu.mmu.itb.flushedEntries                   0                       # Number of entries that have been flushed from TLB (Count)
system.cpu.mmu.itb.instAccesses                     0                       # Inst accesses (Count)
system.cpu.mmu.itb.hits                             0                       # Total TLB (inst and data) hits (Count)
system.cpu.mmu.itb.misses                           0                       # Total TLB (inst and data) misses (Count)
system.cpu.mmu.itb.accesses                         0                       # Total TLB (inst and data) accesses (Count)
system.cpu.mmu.itb_walker.walks                     0                       # Table walker walks requested (Count)
system.cpu.mmu.itb_walker.requestOrigin_Requested::Data            0                       # Table walker requests started/completed, data/inst (Count)
system.cpu.mmu.itb_walker.requestOrigin_Requested::Inst            0                       # Table walker requests started/completed, data/inst (Count)
system.cpu.mmu.itb_walker.requestOrigin_Requested::total            0                       # Table walker requests started/completed, data/inst (Count)
system.cpu.mmu.itb_walker.requestOrigin_Completed::Data            0                       # Table walker requests started/completed, data/inst (Count)
system.cpu.mmu.itb_walker.requestOrigin_Completed::Inst            0                       # Table walker requests started/completed, data/inst (Count)
system.cpu.mmu.itb_walker.requestOrigin_Completed::total            0                       # Table walker requests started/completed, data/inst (Count)
system.cpu.mmu.itb_walker.requestOrigin::total            0                       # Table walker requests started/completed, data/inst (Count)
system.cpu.mmu.itb_walker.power_state.pwrStateResidencyTicks::UNDEFINED   1437619000                       # Cumulative time (in ticks) in various power states (Tick)
system.cpu.mmu.l2_shared.instHits                   0                       # Inst hits (Count)
[...]
system.mem_ctrls.dram.perBankWrBursts::8            0                       # Per bank write bursts (Count)
system.mem_ctrls.dram.perBankWrBursts::9           14                       # Per bank write bursts (Count)
system.mem_ctrls.dram.perBankWrBursts::10            2                       # Per bank write bursts (Count)
system.mem_ctrls.dram.perBankWrBursts::11            0                       # Per bank write bursts (Count)
system.mem_ctrls.dram.perBankWrBursts::12            0                       # Per bank write bursts (Count)
system.mem_ctrls.dram.perBankWrBursts::13           24                       # Per bank write bursts (Count)
system.mem_ctrls.dram.perBankWrBursts::14            0                       # Per bank write bursts (Count)
system.mem_ctrls.dram.perBankWrBursts::15           13                       # Per bank write bursts (Count)
system.mem_ctrls.dram.totQLat                 5957000                       # Total ticks spent queuing (Tick)
system.mem_ctrls.dram.totBusLat               1825000                       # Total ticks spent in databus transfers (Tick)
system.mem_ctrls.dram.totMemAccLat           12800750                       # Total ticks spent from burst creation until serviced by the DRAM (Tick)
system.mem_ctrls.dram.avgQLat                16320.55                       # Average queueing delay per DRAM burst ((Tick/Count))
system.mem_ctrls.dram.avgBusLat               5000.00                       # Average bus latency per DRAM burst ((Tick/Count))
system.mem_ctrls.dram.avgMemAccLat           35070.55                       # Average memory access latency per DRAM burst ((Tick/Count))
system.mem_ctrls.dram.readRowHits                 216                       # Number of row buffer hits during reads (Count)
system.mem_ctrls.dram.writeRowHits                 55                       # Number of row buffer hits during writes (Count)
system.mem_ctrls.dram.readRowHitRate            59.18                       # Row buffer hit rate for reads (Ratio)
system.mem_ctrls.dram.writeRowHitRate           82.09                       # Row buffer hit rate for writes (Ratio)
system.mem_ctrls.dram.bytesPerActivate::samples          152                       # Bytes accessed per row activation (Byte)
system.mem_ctrls.dram.bytesPerActivate::mean   168.842105                       # Bytes accessed per row activation (Byte)
system.mem_ctrls.dram.bytesPerActivate::gmean   118.933076                       # Bytes accessed per row activation (Byte)
system.mem_ctrls.dram.bytesPerActivate::stdev   172.352715                       # Bytes accessed per row activation (Byte)
system.mem_ctrls.dram.bytesPerActivate::0-127           79     51.97%     51.97% # Bytes accessed per row activation (Byte)
system.mem_ctrls.dram.bytesPerActivate::128-255           42     27.63%     79.61% # Bytes accessed per row activation (Byte)
system.mem_ctrls.dram.bytesPerActivate::256-383            9      5.92%     85.53% # Bytes accessed per row activation (Byte)
system.mem_ctrls.dram.bytesPerActivate::384-511           11      7.24%     92.76% # Bytes accessed per row activation (Byte)
system.mem_ctrls.dram.bytesPerActivate::512-639            6      3.95%     96.71% # Bytes accessed per row activation (Byte)
system.mem_ctrls.dram.bytesPerActivate::640-767            3      1.97%     98.68% # Bytes accessed per row activation (Byte)
system.mem_ctrls.dram.bytesPerActivate::768-895            1      0.66%     99.34% # Bytes accessed per row activation (Byte)
system.mem_ctrls.dram.bytesPerActivate::1024-1151            1      0.66%    100.00% # Bytes accessed per row activation (Byte)
system.mem_ctrls.dram.bytesPerActivate::total          152                       # Bytes accessed per row activation (Byte)
system.mem_ctrls.dram.bytesRead                 23360                       # Total bytes read (Byte)
system.mem_ctrls.dram.bytesWritten               4288                       # Total bytes written (Byte)
system.mem_ctrls.dram.avgRdBW             1040.905445                       # Average DRAM read bandwidth in MiBytes/s ((Byte/Second))
system.mem_ctrls.dram.avgWrBW              191.070315                       # Average DRAM write bandwidth in MiBytes/s ((Byte/Second))
system.mem_ctrls.dram.peakBW                 12800.00                       # Theoretical peak bandwidth in MiByte/s ((Byte/Second))
system.mem_ctrls.dram.busUtil                    9.62                       # Data bus utilization in percentage (Ratio)
system.mem_ctrls.dram.busUtilRead                8.13                       # Data bus utilization in percentage for reads (Ratio)
system.mem_ctrls.dram.busUtilWrite               1.49                       # Data bus utilization in percentage for writes (Ratio)
system.mem_ctrls.dram.pageHitRate               62.73                       # Row buffer hit rate, read and write combined (Ratio)
system.mem_ctrls.dram.power_state.pwrStateResidencyTicks::UNDEFINED     22442000                       # Cumulative time (in ticks) in various power states (Tick)
system.mem_ctrls.dram.rank0.actEnergy          571200                       # Energy for activate commands per rank (pJ) (Joule)
system.mem_ctrls.dram.rank0.preEnergy          273240                       # Energy for precharge commands per rank (pJ) (Joule)
system.mem_ctrls.dram.rank0.readEnergy        1235220                       # Energy for read commands per rank (pJ) (Joule)
system.mem_ctrls.dram.rank0.writeEnergy         73080                       # Energy for write commands per rank (pJ) (Joule)
system.mem_ctrls.dram.rank0.refreshEnergy 1843920.000000                       # Energy for refresh commands per rank (pJ) (Joule)
system.mem_ctrls.dram.rank0.actBackEnergy      9990390                       # Energy for active background per rank (pJ) (Joule)
system.mem_ctrls.dram.rank0.preBackEnergy       204480                       # Energy for precharge background per rank (pJ) (Joule)
system.mem_ctrls.dram.rank0.actPowerDownEnergy            0                       # Energy for active power-down per rank (pJ) (Joule)
system.mem_ctrls.dram.rank0.prePowerDownEnergy            0                       # Energy for precharge power-down per rank (pJ) (Joule)
system.mem_ctrls.dram.rank0.selfRefreshEnergy            0                       # Energy for self refresh per rank (pJ) (Joule)
system.mem_ctrls.dram.rank0.totalEnergy      14191530                       # Total energy per rank (pJ) (Joule)
system.mem_ctrls.dram.rank0.averagePower   632.364762                       # Core power per rank (mW) (Watt)
system.mem_ctrls.dram.rank0.totalIdleTime            0                       # Total Idle time Per DRAM Rank (Tick)
system.mem_ctrls.dram.rank0.pwrStateTime::IDLE       450250                       # Time in different power states (Tick)
system.mem_ctrls.dram.rank0.pwrStateTime::REF       780000                       # Time in different power states (Tick)
system.mem_ctrls.dram.rank0.pwrStateTime::SREF            0                       # Time in different power states (Tick)
system.mem_ctrls.dram.rank0.pwrStateTime::PRE_PDN            0                       # Time in different power states (Tick)
system.mem_ctrls.dram.rank0.pwrStateTime::ACT     21211750                       # Time in different power states (Tick)
system.mem_ctrls.dram.rank0.pwrStateTime::ACT_PDN            0                       # Time in different power states (Tick)
system.mem_ctrls.dram.rank1.actEnergy          578340                       # Energy for activate commands per rank (pJ) (Joule)
system.mem_ctrls.dram.rank1.preEnergy          303600                       # Energy for precharge commands per rank (pJ) (Joule)
system.mem_ctrls.dram.rank1.readEnergy        1370880                       # Energy for read commands per rank (pJ) (Joule)
system.mem_ctrls.dram.rank1.writeEnergy        276660                       # Energy for write commands per rank (pJ) (Joule)
system.mem_ctrls.dram.rank1.refreshEnergy 1843920.000000                       # Energy for refresh commands per rank (pJ) (Joule)
system.mem_ctrls.dram.rank1.actBackEnergy     10195590                       # Energy for active background per rank (pJ) (Joule)
system.mem_ctrls.dram.rank1.preBackEnergy        31680                       # Energy for precharge background per rank (pJ) (Joule)
system.mem_ctrls.dram.rank1.actPowerDownEnergy            0                       # Energy for active power-down per rank (pJ) (Joule)
system.mem_ctrls.dram.rank1.prePowerDownEnergy            0                       # Energy for precharge power-down per rank (pJ) (Joule)
system.mem_ctrls.dram.rank1.selfRefreshEnergy            0                       # Energy for self refresh per rank (pJ) (Joule)
system.mem_ctrls.dram.rank1.totalEnergy      14600670                       # Total energy per rank (pJ) (Joule)
system.mem_ctrls.dram.rank1.averagePower   650.595758                       # Core power per rank (mW) (Watt)
system.mem_ctrls.dram.rank1.totalIdleTime            0                       # Total Idle time Per DRAM Rank (Tick)
system.mem_ctrls.dram.rank1.pwrStateTime::IDLE            0                       # Time in different power states (Tick)
system.mem_ctrls.dram.rank1.pwrStateTime::REF       780000                       # Time in different power states (Tick)
system.mem_ctrls.dram.rank1.pwrStateTime::SREF            0                       # Time in different power states (Tick)
system.mem_ctrls.dram.rank1.pwrStateTime::PRE_PDN            0                       # Time in different power states (Tick)
system.mem_ctrls.dram.rank1.pwrStateTime::ACT     21662000                       # Time in different power states (Tick)
system.mem_ctrls.dram.rank1.pwrStateTime::ACT_PDN            0                       # Time in different power states (Tick)
system.mem_ctrls.power_state.pwrStateResidencyTicks::UNDEFINED     22442000                       # Cumulative time (in ticks) in various power states (Tick)
system.membus.transDist::ReadResp                 368                       # Transaction distribution (Count)
system.membus.transDist::WritebackDirty            52                       # Transaction distribution (Count)
system.membus.transDist::CleanEvict               352                       # Transaction distribution (Count)
system.membus.transDist::ReadExReq                  7                       # Transaction distribution (Count)
system.membus.transDist::ReadExResp                 7                       # Transaction distribution (Count)
system.membus.transDist::ReadSharedReq            368                       # Transaction distribution (Count)
system.membus.pktCount_system.l2.mem_side_port::system.mem_ctrls.port         1154                       # Packet count per connected requestor and responder (Count)
system.membus.pktCount::total                    1154                       # Packet count per connected requestor and responder (Count)
system.membus.pktSize_system.l2.mem_side_port::system.mem_ctrls.port        27328                       # Cumulative packet size per connected requestor and responder (Byte)
system.membus.pktSize::total                    27328                       # Cumulative packet size per connected requestor and responder (Byte)
system.membus.snoops                                0                       # Total snoops (Count)
system.membus.snoopTraffic                          0                       # Total snoop traffic (Byte)
system.membus.snoopFanout::samples                375                       # Request fanout histogram (Count)
system.membus.snoopFanout::mean                     0                       # Request fanout histogram (Count)
system.membus.snoopFanout::stdev                    0                       # Request fanout histogram (Count)
system.membus.snoopFanout::underflows               0      0.00%      0.00% # Request fanout histogram (Count)
system.membus.snoopFanout::0                      375    100.00%    100.00% # Request fanout histogram (Count)
system.membus.snoopFanout::1                        0      0.00%    100.00% # Request fanout histogram (Count)
system.membus.snoopFanout::overflows                0      0.00%    100.00% # Request fanout histogram (Count)
system.membus.snoopFanout::min_value                0                       # Request fanout histogram (Count)
system.membus.snoopFanout::max_value                0                       # Request fanout histogram (Count)
system.membus.snoopFanout::total                  375                       # Request fanout histogram (Count)
system.membus.power_state.pwrStateResidencyTicks::UNDEFINED     22442000                       # Cumulative time (in ticks) in various power states (Tick)
system.membus.reqLayer0.occupancy             1073500                       # Layer occupancy (ticks) (Tick)
system.membus.reqLayer0.utilization               0.0                       # Layer utilization (Ratio)
system.membus.respLayer1.occupancy            2008750                       # Layer occupancy (ticks) (Tick)
system.membus.respLayer1.utilization              0.1                       # Layer utilization (Ratio)
system.membus.snoop_filter.totRequests            779                       # Total number of requests made to the snoop filter. (Count)
system.membus.snoop_filter.hitSingleRequests          404                       # Number of requests hitting in the snoop filter with a single holder of the requested data. (Count)
system.membus.snoop_filter.hitMultiRequests            0                       # Number of requests hitting in the snoop filter with multiple (>1) holders of the requested data. (Count)
system.membus.snoop_filter.totSnoops                0                       # Total number of snoops made to the snoop filter. (Count)
system.membus.snoop_filter.hitSingleSnoops            0                       # Number of snoops hitting in the snoop filter with a single holder of the requested data. (Count)
system.membus.snoop_filter.hitMultiSnoops            0                       # Number of snoops hitting in the snoop filter with multiple (>1) holders of the requested data. (Count)
system.tol2bus.transDist::ReadResp                559                       # Transaction distribution (Count)
system.tol2bus.transDist::WritebackDirty          119                       # Transaction distribution (Count)
system.tol2bus.transDist::WritebackClean          244                       # Transaction distribution (Count)
system.tol2bus.transDist::CleanEvict              657                       # Transaction distribution (Count)
system.tol2bus.transDist::ReadExReq                26                       # Transaction distribution (Count)
system.tol2bus.transDist::ReadExResp               26                       # Transaction distribution (Count)
system.tol2bus.transDist::ReadCleanReq            245                       # Transaction distribution (Count)
system.tol2bus.transDist::ReadSharedReq           314                       # Transaction distribution (Count)
system.tol2bus.transDist::InvalidateReq             3                       # Transaction distribution (Count)
system.tol2bus.transDist::InvalidateResp            3                       # Transaction distribution (Count)
system.tol2bus.pktCount_system.cpu.icache.mem_side_port::system.l2.cpu_side_port          733                       # Packet count per connected requestor and responder (Count)
system.tol2bus.pktCount_system.cpu.dcache.mem_side_port::system.l2.cpu_side_port         1032                       # Packet count per connected requestor and responder (Count)
system.tol2bus.pktCount::total                   1765                       # Packet count per connected requestor and responder (Count)
system.tol2bus.pktSize_system.cpu.icache.mem_side_port::system.l2.cpu_side_port        31232                       # Cumulative packet size per connected requestor and responder (Byte)
system.tol2bus.pktSize_system.cpu.dcache.mem_side_port::system.l2.cpu_side_port        26112                       # Cumulative packet size per connected requestor and responder (Byte)
system.tol2bus.pktSize::total                   57344                       # Cumulative packet size per connected requestor and responder (Byte)
system.tol2bus.snoops                             431                       # Total snoops (Count)
system.tol2bus.snoopTraffic                      3328                       # Total snoop traffic (Byte)
system.tol2bus.snoopFanout::samples              1019                       # Request fanout histogram (Count)
system.tol2bus.snoopFanout::mean             0.028459                       # Request fanout histogram (Count)
system.tol2bus.snoopFanout::stdev            0.166363                       # Request fanout histogram (Count)
system.tol2bus.snoopFanout::underflows              0      0.00%      0.00% # Request fanout histogram (Count)
system.tol2bus.snoopFanout::0                     990     97.15%     97.15% # Request fanout histogram (Count)
system.tol2bus.snoopFanout::1                      29      2.85%    100.00% # Request fanout histogram (Count)
system.tol2bus.snoopFanout::2                       0      0.00%    100.00% # Request fanout histogram (Count)
system.tol2bus.snoopFanout::overflows               0      0.00%    100.00% # Request fanout histogram (Count)
system.tol2bus.snoopFanout::min_value               0                       # Request fanout histogram (Count)
system.tol2bus.snoopFanout::max_value               1                       # Request fanout histogram (Count)
system.tol2bus.snoopFanout::total                1019                       # Request fanout histogram (Count)
system.tol2bus.power_state.pwrStateResidencyTicks::UNDEFINED     22442000                       # Cumulative time (in ticks) in various power states (Tick)
system.tol2bus.reqLayer0.occupancy             899500                       # Layer occupancy (ticks) (Tick)
system.tol2bus.reqLayer0.utilization              0.0                       # Layer utilization (Ratio)
system.tol2bus.respLayer0.occupancy            366499                       # Layer occupancy (ticks) (Tick)
system.tol2bus.respLayer0.utilization             0.0                       # Layer utilization (Ratio)
system.tol2bus.respLayer1.occupancy            513000                       # Layer occupancy (ticks) (Tick)
system.tol2bus.respLayer1.utilization             0.0                       # Layer utilization (Ratio)
system.tol2bus.snoop_filter.totRequests          1177                       # Total number of requests made to the snoop filter. (Count)
system.tol2bus.snoop_filter.hitSingleRequests          589                       # Number of requests hitting in the snoop filter with a single holder of the requested data. (Count)
system.tol2bus.snoop_filter.hitMultiRequests            0                       # Number of requests hitting in the snoop filter with multiple (>1) holders of the requested data. (Count)
system.tol2bus.snoop_filter.totSnoops              29                       # Total number of snoops made to the snoop filter. (Count)
system.tol2bus.snoop_filter.hitSingleSnoops           29                       # Number of snoops hitting in the snoop filter with a single holder of the requested data. (Count)
system.tol2bus.snoop_filter.hitMultiSnoops            0                       # Number of snoops hitting in the snoop filter with multiple (>1) holders of the requested data. (Count)
system.voltage_domain.voltage                       1                       # Voltage in Volts (Volt)
system.workload.inst.arm                            0                       # number of arm instructions executed (Count)
system.workload.inst.quiesce                        0                       # number of quiesce instructions executed (Count)

---------- End Simulation Statistics   ----------
